MODEL 1
REMARK VINA RESULT:      -3.7      0.000      0.000
REMARK  5 active torsions:
REMARK  status: ('A' for Active; 'I' for Inactive)
REMARK    1  A    between atoms: C4_4  and  C5_5 
REMARK    2  A    between atoms: C8_8  and  O9_9 
REMARK    3  A    between atoms: C10_11  and  O11_12 
REMARK    4  A    between atoms: C16_18  and  O17_19 
REMARK    5  A    between atoms: C19_22  and  O20_23 
ROOT
HETATM    1  O1          0      48.730   5.561  33.989  1.00  0.00    -0.286 OA
HETATM    2  C2          0      48.304   6.729  34.202  1.00  0.00     0.201 C 
HETATM    3  C3          0      48.704   7.488  35.288  1.00  0.00     0.067 C 
HETATM    4  C4          0      48.142   8.731  35.555  1.00  0.00     0.103 C 
HETATM    5  O13         0      47.218   9.199  34.735  1.00  0.00    -0.307 OA
HETATM    6  C14         0      46.774   8.503  33.711  1.00  0.00     0.107 C 
HETATM    7  C15         0      45.563   8.792  33.100  1.00  0.00     0.049 C 
HETATM    8  C16         0      44.982   7.911  32.197  1.00  0.00     0.093 C 
HETATM    9  C18         0      45.870   7.054  31.559  1.00  0.00     0.048 C 
HETATM   10  C19         0      47.110   6.779  32.119  1.00  0.00     0.096 C 
HETATM   11  C21         0      47.468   7.370  33.300  1.00  0.00     0.084 C 
ENDROOT
BRANCH  10  12
HETATM   12  O20         0      47.791   5.629  31.733  1.00  0.00    -0.359 OA
HETATM   13  H20         0      47.287   4.917  31.358  1.00  0.00     0.218 HD
ENDBRANCH  10  12
BRANCH   4  14
HETATM   14  C5          0      48.140   9.179  36.949  1.00  0.00     0.025 C 
HETATM   15  C6          0      47.248  10.125  37.434  1.00  0.00     0.004 C 
HETATM   16  C7          0      46.742   9.936  38.716  1.00  0.00     0.026 C 
HETATM   17  C8          0      47.208   8.918  39.541  1.00  0.00     0.112 C 
HETATM   18  C10         0      48.482   8.460  39.234  1.00  0.00     0.112 C 
HETATM   19  C12         0      48.930   8.584  37.924  1.00  0.00     0.028 C 
BRANCH  17  20
HETATM   20  O9          0      46.364   8.295  40.443  1.00  0.00    -0.357 OA
HETATM   21  H9          0      46.573   7.481  40.886  1.00  0.00     0.218 HD
ENDBRANCH  17  20
BRANCH  18  22
HETATM   22  O11         0      49.068   7.582  40.135  1.00  0.00    -0.357 OA
HETATM   23  H11         0      49.757   7.019  39.800  1.00  0.00     0.218 HD
ENDBRANCH  18  22
ENDBRANCH   4  14
BRANCH   8  24
HETATM   24  O17         0      43.602   7.680  32.188  1.00  0.00    -0.359 OA
HETATM   25  H17         0      43.233   6.872  31.851  1.00  0.00     0.218 HD
ENDBRANCH   8  24
TORSDOF 5
ENDMDL
MODEL 2
REMARK VINA RESULT:      -3.6      1.819      6.966
REMARK  5 active torsions:
REMARK  status: ('A' for Active; 'I' for Inactive)
REMARK    1  A    between atoms: C4_4  and  C5_5 
REMARK    2  A    between atoms: C8_8  and  O9_9 
REMARK    3  A    between atoms: C10_11  and  O11_12 
REMARK    4  A    between atoms: C16_18  and  O17_19 
REMARK    5  A    between atoms: C19_22  and  O20_23 
ROOT
HETATM    1  O1          0      44.132   9.859  38.356  1.00  0.00    -0.286 OA
HETATM    2  C2          0      45.234   9.831  37.743  1.00  0.00     0.201 C 
HETATM    3  C3          0      45.336   9.996  36.373  1.00  0.00     0.067 C 
HETATM    4  C4          0      46.551   9.859  35.710  1.00  0.00     0.103 C 
HETATM    5  O13         0      47.632   9.584  36.418  1.00  0.00    -0.307 OA
HETATM    6  C14         0      47.585   9.381  37.717  1.00  0.00     0.107 C 
HETATM    7  C15         0      48.599   8.715  38.390  1.00  0.00     0.049 C 
HETATM    8  C16         0      48.432   8.280  39.699  1.00  0.00     0.093 C 
HETATM    9  C18         0      47.482   8.980  40.433  1.00  0.00     0.048 C 
HETATM   10  C19         0      46.481   9.696  39.791  1.00  0.00     0.096 C 
HETATM   11  C21         0      46.438   9.726  38.424  1.00  0.00     0.084 C 
ENDROOT
BRANCH  10  12
HETATM   12  O20         0      45.319  10.015  40.487  1.00  0.00    -0.359 OA
HETATM   13  H20         0      44.551   9.475  40.343  1.00  0.00     0.218 HD
ENDBRANCH  10  12
BRANCH   4  14
HETATM   14  C5          0      46.505   9.449  34.305  1.00  0.00     0.025 C 
HETATM   15  C6          0      47.087   8.277  33.845  1.00  0.00     0.004 C 
HETATM   16  C7          0      46.408   7.563  32.862  1.00  0.00     0.026 C 
HETATM   17  C8          0      45.258   8.063  32.261  1.00  0.00     0.112 C 
HETATM   18  C10         0      45.129   9.444  32.315  1.00  0.00     0.112 C 
HETATM   19  C12         0      45.748  10.125  33.357  1.00  0.00     0.028 C 
BRANCH  17  20
HETATM   20  O9          0      44.249   7.213  31.844  1.00  0.00    -0.357 OA
HETATM   21  H9          0      43.777   7.315  31.026  1.00  0.00     0.218 HD
ENDBRANCH  17  20
BRANCH  18  22
HETATM   22  O11         0      44.103  10.010  31.571  1.00  0.00    -0.357 OA
HETATM   23  H11         0      44.293  10.213  30.662  1.00  0.00     0.218 HD
ENDBRANCH  18  22
ENDBRANCH   4  14
BRANCH   8  24
HETATM   24  O17         0      48.924   7.041  40.125  1.00  0.00    -0.359 OA
HETATM   25  H17         0      49.841   6.915  40.338  1.00  0.00     0.218 HD
ENDBRANCH   8  24
TORSDOF 5
ENDMDL
MODEL 3
REMARK VINA RESULT:      -3.3      2.227      7.195
REMARK  5 active torsions:
REMARK  status: ('A' for Active; 'I' for Inactive)
REMARK    1  A    between atoms: C4_4  and  C5_5 
REMARK    2  A    between atoms: C8_8  and  O9_9 
REMARK    3  A    between atoms: C10_11  and  O11_12 
REMARK    4  A    between atoms: C16_18  and  O17_19 
REMARK    5  A    between atoms: C19_22  and  O20_23 
ROOT
HETATM    1  O1          0      42.932   8.950  37.076  1.00  0.00    -0.286 OA
HETATM    2  C2          0      43.980   9.373  36.515  1.00  0.00     0.201 C 
HETATM    3  C3          0      44.093   9.515  35.143  1.00  0.00     0.067 C 
HETATM    4  C4          0      45.292   9.886  34.544  1.00  0.00     0.103 C 
HETATM    5  O13         0      46.338  10.125  35.315  1.00  0.00    -0.307 OA
HETATM    6  C14         0      46.296   9.969  36.620  1.00  0.00     0.107 C 
HETATM    7  C15         0      47.450   9.825  37.377  1.00  0.00     0.049 C 
HETATM    8  C16         0      47.397   9.409  38.702  1.00  0.00     0.093 C 
HETATM    9  C18         0      46.194   9.663  39.349  1.00  0.00     0.048 C 
HETATM   10  C19         0      45.028   9.859  38.620  1.00  0.00     0.096 C 
HETATM   11  C21         0      45.067   9.817  37.253  1.00  0.00     0.084 C 
ENDROOT
BRANCH  10  12
HETATM   12  O20         0      43.798   9.676  39.244  1.00  0.00    -0.359 OA
HETATM   13  H20         0      43.118  10.320  39.084  1.00  0.00     0.218 HD
ENDBRANCH  10  12
BRANCH   4  14
HETATM   14  C5          0      45.517   9.444  33.167  1.00  0.00     0.025 C 
HETATM   15  C6          0      46.166   8.259  32.854  1.00  0.00     0.004 C 
HETATM   16  C7          0      45.685   7.527  31.773  1.00  0.00     0.026 C 
HETATM   17  C8          0      44.680   8.019  30.948  1.00  0.00     0.112 C 
HETATM   18  C10         0      44.556   9.402  30.947  1.00  0.00     0.112 C 
HETATM   19  C12         0      44.966  10.102  32.075  1.00  0.00     0.028 C 
BRANCH  17  20
HETATM   20  O9          0      43.763   7.165  30.361  1.00  0.00    -0.357 OA
HETATM   21  H9          0      43.049   6.752  30.832  1.00  0.00     0.218 HD
ENDBRANCH  17  20
BRANCH  18  22
HETATM   22  O11         0      43.701   9.956  30.005  1.00  0.00    -0.357 OA
HETATM   23  H11         0      43.652   9.522  29.161  1.00  0.00     0.218 HD
ENDBRANCH  18  22
ENDBRANCH   4  14
BRANCH   8  24
HETATM   24  O17         0      48.339   8.516  39.224  1.00  0.00    -0.359 OA
HETATM   25  H17         0      49.152   8.818  39.611  1.00  0.00     0.218 HD
ENDBRANCH   8  24
TORSDOF 5
ENDMDL
MODEL 4
REMARK VINA RESULT:      -3.3      1.827      6.670
REMARK  5 active torsions:
REMARK  status: ('A' for Active; 'I' for Inactive)
REMARK    1  A    between atoms: C4_4  and  C5_5 
REMARK    2  A    between atoms: C8_8  and  O9_9 
REMARK    3  A    between atoms: C10_11  and  O11_12 
REMARK    4  A    between atoms: C16_18  and  O17_19 
REMARK    5  A    between atoms: C19_22  and  O20_23 
ROOT
HETATM    1  O1          0      47.151   9.491  39.529  1.00  0.00    -0.286 OA
HETATM    2  C2          0      47.845   9.037  38.578  1.00  0.00     0.201 C 
HETATM    3  C3          0      47.628   9.390  37.257  1.00  0.00     0.067 C 
HETATM    4  C4          0      48.339   8.797  36.219  1.00  0.00     0.103 C 
HETATM    5  O13         0      49.255   7.892  36.513  1.00  0.00    -0.307 OA
HETATM    6  C14         0      49.474   7.494  37.747  1.00  0.00     0.107 C 
HETATM    7  C15         0      50.119   6.297  38.026  1.00  0.00     0.049 C 
HETATM    8  C16         0      50.122   5.761  39.308  1.00  0.00     0.093 C 
HETATM    9  C18         0      49.943   6.684  40.331  1.00  0.00     0.048 C 
HETATM   10  C19         0      49.343   7.911  40.077  1.00  0.00     0.096 C 
HETATM   11  C21         0      48.941   8.220  38.807  1.00  0.00     0.084 C 
ENDROOT
BRANCH  10  12
HETATM   12  O20         0      48.781   8.624  41.132  1.00  0.00    -0.359 OA
HETATM   13  H20         0      49.337   9.231  41.605  1.00  0.00     0.218 HD
ENDBRANCH  10  12
BRANCH   4  14
HETATM   14  C5          0      47.689   8.743  34.908  1.00  0.00     0.025 C 
HETATM   15  C6          0      47.850   7.679  34.032  1.00  0.00     0.004 C 
HETATM   16  C7          0      46.740   7.273  33.300  1.00  0.00     0.026 C 
HETATM   17  C8          0      45.544   7.983  33.335  1.00  0.00     0.112 C 
HETATM   18  C10         0      45.671   9.316  33.702  1.00  0.00     0.112 C 
HETATM   19  C12         0      46.745   9.679  34.506  1.00  0.00     0.028 C 
BRANCH  17  20
HETATM   20  O9          0      44.329   7.331  33.216  1.00  0.00    -0.357 OA
HETATM   21  H9          0      43.492   7.778  33.176  1.00  0.00     0.218 HD
ENDBRANCH  17  20
BRANCH  18  22
HETATM   22  O11         0      44.544  10.114  33.571  1.00  0.00    -0.357 OA
HETATM   23  H11         0      44.558  10.767  32.881  1.00  0.00     0.218 HD
ENDBRANCH  18  22
ENDBRANCH   4  14
BRANCH   8  24
HETATM   24  O17         0      49.975   4.386  39.523  1.00  0.00    -0.359 OA
HETATM   25  H17         0      49.753   3.791  38.817  1.00  0.00     0.218 HD
ENDBRANCH   8  24
TORSDOF 5
ENDMDL
MODEL 5
REMARK VINA RESULT:      -3.2      2.078      6.641
REMARK  5 active torsions:
REMARK  status: ('A' for Active; 'I' for Inactive)
REMARK    1  A    between atoms: C4_4  and  C5_5 
REMARK    2  A    between atoms: C8_8  and  O9_9 
REMARK    3  A    between atoms: C10_11  and  O11_12 
REMARK    4  A    between atoms: C16_18  and  O17_19 
REMARK    5  A    between atoms: C19_22  and  O20_23 
ROOT
HETATM    1  O1          0      43.025   8.000  36.570  1.00  0.00    -0.286 OA
HETATM    2  C2          0      44.127   8.532  36.264  1.00  0.00     0.201 C 
HETATM    3  C3          0      44.737   8.343  35.036  1.00  0.00     0.067 C 
HETATM    4  C4          0      45.999   8.857  34.762  1.00  0.00     0.103 C 
HETATM    5  O13         0      46.615   9.560  35.697  1.00  0.00    -0.307 OA
HETATM    6  C14         0      46.097   9.738  36.893  1.00  0.00     0.107 C 
HETATM    7  C15         0      46.876  10.110  37.979  1.00  0.00     0.049 C 
HETATM    8  C16         0      46.381  10.048  39.276  1.00  0.00     0.093 C 
HETATM    9  C18         0      44.998  10.125  39.381  1.00  0.00     0.048 C 
HETATM   10  C19         0      44.189   9.805  38.299  1.00  0.00     0.096 C 
HETATM   11  C21         0      44.760   9.427  37.114  1.00  0.00     0.084 C 
ENDROOT
BRANCH  10  12
HETATM   12  O20         0      42.859   9.463  38.522  1.00  0.00    -0.359 OA
HETATM   13  H20         0      42.376   9.956  39.173  1.00  0.00     0.218 HD
ENDBRANCH  10  12
BRANCH   4  14
HETATM   14  C5          0      46.806   8.156  33.762  1.00  0.00     0.025 C 
HETATM   15  C6          0      48.018   7.551  34.063  1.00  0.00     0.004 C 
HETATM   16  C7          0      48.306   6.340  33.441  1.00  0.00     0.026 C 
HETATM   17  C8          0      47.481   5.814  32.453  1.00  0.00     0.112 C 
HETATM   18  C10         0      46.692   6.749  31.797  1.00  0.00     0.112 C 
HETATM   19  C12         0      46.348   7.913  32.473  1.00  0.00     0.028 C 
BRANCH  17  20
HETATM   20  O9          0      47.330   4.446  32.311  1.00  0.00    -0.357 OA
HETATM   21  H9          0      47.979   3.882  31.906  1.00  0.00     0.218 HD
ENDBRANCH  17  20
BRANCH  18  22
HETATM   22  O11         0      45.994   6.310  30.681  1.00  0.00    -0.357 OA
HETATM   23  H11         0      45.774   6.964  30.027  1.00  0.00     0.218 HD
ENDBRANCH  18  22
ENDBRANCH   4  14
BRANCH   8  24
HETATM   24  O17         0      47.177   9.608  40.340  1.00  0.00    -0.359 OA
HETATM   25  H17         0      47.512  10.208  40.995  1.00  0.00     0.218 HD
ENDBRANCH   8  24
TORSDOF 5
ENDMDL
MODEL 6
REMARK VINA RESULT:      -3.1      1.531      2.010
REMARK  5 active torsions:
REMARK  status: ('A' for Active; 'I' for Inactive)
REMARK    1  A    between atoms: C4_4  and  C5_5 
REMARK    2  A    between atoms: C8_8  and  O9_9 
REMARK    3  A    between atoms: C10_11  and  O11_12 
REMARK    4  A    between atoms: C16_18  and  O17_19 
REMARK    5  A    between atoms: C19_22  and  O20_23 
ROOT
HETATM    1  O1          0      45.692   5.369  33.524  1.00  0.00    -0.286 OA
HETATM    2  C2          0      46.003   6.590  33.473  1.00  0.00     0.201 C 
HETATM    3  C3          0      46.935   7.164  34.321  1.00  0.00     0.067 C 
HETATM    4  C4          0      47.183   8.531  34.312  1.00  0.00     0.103 C 
HETATM    5  O13         0      46.524   9.291  33.456  1.00  0.00    -0.307 OA
HETATM    6  C14         0      45.602   8.803  32.655  1.00  0.00     0.107 C 
HETATM    7  C15         0      44.647   9.615  32.060  1.00  0.00     0.049 C 
HETATM    8  C16         0      43.533   9.075  31.428  1.00  0.00     0.093 C 
HETATM    9  C18         0      43.694   7.773  30.967  1.00  0.00     0.048 C 
HETATM   10  C19         0      44.671   6.949  31.508  1.00  0.00     0.096 C 
HETATM   11  C21         0      45.494   7.427  32.491  1.00  0.00     0.084 C 
ENDROOT
BRANCH  10  12
HETATM   12  O20         0      44.548   5.569  31.373  1.00  0.00    -0.359 OA
HETATM   13  H20         0      45.088   5.136  30.722  1.00  0.00     0.218 HD
ENDBRANCH  10  12
BRANCH   4  14
HETATM   14  C5          0      47.672   9.131  35.555  1.00  0.00     0.025 C 
HETATM   15  C6          0      46.980  10.124  36.234  1.00  0.00     0.004 C 
HETATM   16  C7          0      46.986  10.078  37.624  1.00  0.00     0.026 C 
HETATM   17  C8          0      47.762   9.158  38.321  1.00  0.00     0.112 C 
HETATM   18  C10         0      48.854   8.669  37.615  1.00  0.00     0.112 C 
HETATM   19  C12         0      48.787   8.648  36.227  1.00  0.00     0.028 C 
BRANCH  17  20
HETATM   20  O9          0      47.332   8.638  39.529  1.00  0.00    -0.357 OA
HETATM   21  H9          0      47.506   7.748  39.812  1.00  0.00     0.218 HD
ENDBRANCH  17  20
BRANCH  18  22
HETATM   22  O11         0      49.764   7.898  38.323  1.00  0.00    -0.357 OA
HETATM   23  H11         0      50.067   8.244  39.155  1.00  0.00     0.218 HD
ENDBRANCH  18  22
ENDBRANCH   4  14
BRANCH   8  24
HETATM   24  O17         0      42.269   9.661  31.551  1.00  0.00    -0.359 OA
HETATM   25  H17         0      41.494   9.259  31.177  1.00  0.00     0.218 HD
ENDBRANCH   8  24
TORSDOF 5
ENDMDL
MODEL 7
REMARK VINA RESULT:      -3.1      1.749      2.248
REMARK  5 active torsions:
REMARK  status: ('A' for Active; 'I' for Inactive)
REMARK    1  A    between atoms: C4_4  and  C5_5 
REMARK    2  A    between atoms: C8_8  and  O9_9 
REMARK    3  A    between atoms: C10_11  and  O11_12 
REMARK    4  A    between atoms: C16_18  and  O17_19 
REMARK    5  A    between atoms: C19_22  and  O20_23 
ROOT
HETATM    1  O1          0      46.268   4.197  34.325  1.00  0.00    -0.286 OA
HETATM    2  C2          0      46.599   5.321  33.856  1.00  0.00     0.201 C 
HETATM    3  C3          0      47.384   6.223  34.554  1.00  0.00     0.067 C 
HETATM    4  C4          0      47.648   7.495  34.058  1.00  0.00     0.103 C 
HETATM    5  O13         0      47.151   7.833  32.882  1.00  0.00    -0.307 OA
HETATM    6  C14         0      46.369   7.029  32.196  1.00  0.00     0.107 C 
HETATM    7  C15         0      45.537   7.500  31.190  1.00  0.00     0.049 C 
HETATM    8  C16         0      44.538   6.702  30.647  1.00  0.00     0.093 C 
HETATM    9  C18         0      44.755   5.334  30.756  1.00  0.00     0.048 C 
HETATM   10  C19         0      45.618   4.831  31.721  1.00  0.00     0.096 C 
HETATM   11  C21         0      46.272   5.690  32.561  1.00  0.00     0.084 C 
ENDROOT
BRANCH  10  12
HETATM   12  O20         0      45.501   3.500  32.110  1.00  0.00    -0.359 OA
HETATM   13  H20         0      44.918   3.297  32.832  1.00  0.00     0.218 HD
ENDBRANCH  10  12
BRANCH   4  14
HETATM   14  C5          0      47.931   8.549  35.034  1.00  0.00     0.025 C 
HETATM   15  C6          0      47.113   9.656  35.202  1.00  0.00     0.004 C 
HETATM   16  C7          0      46.920  10.124  36.498  1.00  0.00     0.026 C 
HETATM   17  C8          0      47.622   9.596  37.577  1.00  0.00     0.112 C 
HETATM   18  C10         0      48.820   8.980  37.242  1.00  0.00     0.112 C 
HETATM   19  C12         0      48.955   8.445  35.967  1.00  0.00     0.028 C 
BRANCH  17  20
HETATM   20  O9          0      47.042   9.519  38.831  1.00  0.00    -0.357 OA
HETATM   21  H9          0      46.585   8.752  39.155  1.00  0.00     0.218 HD
ENDBRANCH  17  20
BRANCH  18  22
HETATM   22  O11         0      49.648   8.604  38.291  1.00  0.00    -0.357 OA
HETATM   23  H11         0      50.186   7.833  38.159  1.00  0.00     0.218 HD
ENDBRANCH  18  22
ENDBRANCH   4  14
BRANCH   8  24
HETATM   24  O17         0      43.278   7.224  30.332  1.00  0.00    -0.359 OA
HETATM   25  H17         0      42.709   7.590  30.999  1.00  0.00     0.218 HD
ENDBRANCH   8  24
TORSDOF 5
ENDMDL
MODEL 8
REMARK VINA RESULT:      -2.8      2.352      6.617
REMARK  5 active torsions:
REMARK  status: ('A' for Active; 'I' for Inactive)
REMARK    1  A    between atoms: C4_4  and  C5_5 
REMARK    2  A    between atoms: C8_8  and  O9_9 
REMARK    3  A    between atoms: C10_11  and  O11_12 
REMARK    4  A    between atoms: C16_18  and  O17_19 
REMARK    5  A    between atoms: C19_22  and  O20_23 
ROOT
HETATM    1  O1          0      43.160  10.123  36.945  1.00  0.00    -0.286 OA
HETATM    2  C2          0      44.343   9.751  37.180  1.00  0.00     0.201 C 
HETATM    3  C3          0      45.341   9.773  36.221  1.00  0.00     0.067 C 
HETATM    4  C4          0      46.608   9.261  36.477  1.00  0.00     0.103 C 
HETATM    5  O13         0      46.862   8.762  37.674  1.00  0.00    -0.307 OA
HETATM    6  C14         0      45.939   8.683  38.608  1.00  0.00     0.107 C 
HETATM    7  C15         0      46.067   7.824  39.690  1.00  0.00     0.049 C 
HETATM    8  C16         0      44.992   7.555  40.529  1.00  0.00     0.093 C 
HETATM    9  C18         0      44.013   8.541  40.563  1.00  0.00     0.048 C 
HETATM   10  C19         0      43.888   9.447  39.518  1.00  0.00     0.096 C 
HETATM   11  C21         0      44.745   9.379  38.454  1.00  0.00     0.084 C 
ENDROOT
BRANCH  10  12
HETATM   12  O20         0      42.683  10.121  39.343  1.00  0.00    -0.359 OA
HETATM   13  H20         0      41.982   9.670  38.889  1.00  0.00     0.218 HD
ENDBRANCH  10  12
BRANCH   4  14
HETATM   14  C5          0      47.375   8.769  35.331  1.00  0.00     0.025 C 
HETATM   15  C6          0      48.651   8.236  35.453  1.00  0.00     0.004 C 
HETATM   16  C7          0      48.973   7.147  34.650  1.00  0.00     0.026 C 
HETATM   17  C8          0      48.108   6.686  33.664  1.00  0.00     0.112 C 
HETATM   18  C10         0      47.197   7.628  33.205  1.00  0.00     0.112 C 
HETATM   19  C12         0      46.827   8.660  34.060  1.00  0.00     0.028 C 
BRANCH  17  20
HETATM   20  O9          0      48.047   5.341  33.346  1.00  0.00    -0.357 OA
HETATM   21  H9          0      48.731   4.716  33.561  1.00  0.00     0.218 HD
ENDBRANCH  17  20
BRANCH  18  22
HETATM   22  O11         0      46.440   7.282  32.095  1.00  0.00    -0.357 OA
HETATM   23  H11         0      45.556   7.628  32.052  1.00  0.00     0.218 HD
ENDBRANCH  18  22
ENDBRANCH   4  14
BRANCH   8  24
HETATM   24  O17         0      44.756   6.267  41.022  1.00  0.00    -0.359 OA
HETATM   25  H17         0      43.883   5.975  41.258  1.00  0.00     0.218 HD
ENDBRANCH   8  24
TORSDOF 5
ENDMDL
MODEL 9
REMARK VINA RESULT:      -2.5      2.511      3.743
REMARK  5 active torsions:
REMARK  status: ('A' for Active; 'I' for Inactive)
REMARK    1  A    between atoms: C4_4  and  C5_5 
REMARK    2  A    between atoms: C8_8  and  O9_9 
REMARK    3  A    between atoms: C10_11  and  O11_12 
REMARK    4  A    between atoms: C16_18  and  O17_19 
REMARK    5  A    between atoms: C19_22  and  O20_23 
ROOT
HETATM    1  O1          0      44.551   4.114  33.735  1.00  0.00    -0.286 OA
HETATM    2  C2          0      44.819   5.229  33.209  1.00  0.00     0.201 C 
HETATM    3  C3          0      45.954   5.955  33.527  1.00  0.00     0.067 C 
HETATM    4  C4          0      46.174   7.227  33.010  1.00  0.00     0.103 C 
HETATM    5  O13         0      45.281   7.738  32.181  1.00  0.00    -0.307 OA
HETATM    6  C14         0      44.168   7.108  31.876  1.00  0.00     0.107 C 
HETATM    7  C15         0      43.071   7.774  31.352  1.00  0.00     0.049 C 
HETATM    8  C16         0      41.826   7.162  31.271  1.00  0.00     0.093 C 
HETATM    9  C18         0      41.856   5.774  31.225  1.00  0.00     0.048 C 
HETATM   10  C19         0      42.959   5.076  31.699  1.00  0.00     0.096 C 
HETATM   11  C21         0      44.032   5.762  32.199  1.00  0.00     0.084 C 
ENDROOT
BRANCH  10  12
HETATM   12  O20         0      42.817   3.738  32.052  1.00  0.00    -0.359 OA
HETATM   13  H20         0      41.971   3.329  31.915  1.00  0.00     0.218 HD
ENDBRANCH  10  12
BRANCH   4  14
HETATM   14  C5          0      47.004   8.137  33.802  1.00  0.00     0.025 C 
HETATM   15  C6          0      46.654   9.458  34.040  1.00  0.00     0.004 C 
HETATM   16  C7          0      46.931   9.982  35.298  1.00  0.00     0.026 C 
HETATM   17  C8          0      47.652   9.263  36.245  1.00  0.00     0.112 C 
HETATM   18  C10         0      48.472   8.273  35.720  1.00  0.00     0.112 C 
HETATM   19  C12         0      48.125   7.706  34.500  1.00  0.00     0.028 C 
BRANCH  17  20
HETATM   20  O9          0      47.388   9.405  37.596  1.00  0.00    -0.357 OA
HETATM   21  H9          0      47.380  10.241  38.047  1.00  0.00     0.218 HD
ENDBRANCH  17  20
BRANCH  18  22
HETATM   22  O11         0      49.352   7.654  36.597  1.00  0.00    -0.357 OA
HETATM   23  H11         0      50.145   7.287  36.224  1.00  0.00     0.218 HD
ENDBRANCH  18  22
ENDBRANCH   4  14
BRANCH   8  24
HETATM   24  O17         0      40.648   7.864  31.555  1.00  0.00    -0.359 OA
HETATM   25  H17         0      40.595   8.476  32.279  1.00  0.00     0.218 HD
ENDBRANCH   8  24
TORSDOF 5
ENDMDL
