MODEL 1
REMARK VINA RESULT:      -8.5      0.000      0.000
REMARK  5 active torsions:
REMARK  status: ('A' for Active; 'I' for Inactive)
REMARK    1  A    between atoms: C4_4  and  C5_5 
REMARK    2  A    between atoms: C8_8  and  O9_9 
REMARK    3  A    between atoms: C10_11  and  O11_12 
REMARK    4  A    between atoms: C16_18  and  O17_19 
REMARK    5  A    between atoms: C19_22  and  O20_23 
ROOT
HETATM    1  O1          0      65.200  20.991  16.794  1.00  0.00    -0.286 OA
HETATM    2  C2          0      65.521  22.118  16.326  1.00  0.00     0.201 C 
HETATM    3  C3          0      66.837  22.494  16.110  1.00  0.00     0.067 C 
HETATM    4  C4          0      67.168  23.777  15.691  1.00  0.00     0.103 C 
HETATM    5  O13         0      66.196  24.646  15.476  1.00  0.00    -0.307 OA
HETATM    6  C14         0      64.934  24.352  15.701  1.00  0.00     0.107 C 
HETATM    7  C15         0      63.973  25.339  15.866  1.00  0.00     0.049 C 
HETATM    8  C16         0      62.706  25.038  16.352  1.00  0.00     0.093 C 
HETATM    9  C18         0      62.297  23.725  16.151  1.00  0.00     0.048 C 
HETATM   10  C19         0      63.230  22.720  15.936  1.00  0.00     0.096 C 
HETATM   11  C21         0      64.563  23.027  15.905  1.00  0.00     0.084 C 
ENDROOT
BRANCH  10  12
HETATM   12  O20         0      62.871  21.397  16.169  1.00  0.00    -0.359 OA
HETATM   13  H20         0      62.324  21.210  16.922  1.00  0.00     0.218 HD
ENDBRANCH  10  12
BRANCH   4  14
HETATM   14  C5          0      68.494  24.279  16.056  1.00  0.00     0.025 C 
HETATM   15  C6          0      69.563  24.292  15.171  1.00  0.00     0.004 C 
HETATM   16  C7          0      70.422  25.385  15.214  1.00  0.00     0.026 C 
HETATM   17  C8          0      70.304  26.368  16.191  1.00  0.00     0.112 C 
HETATM   18  C10         0      69.660  25.958  17.351  1.00  0.00     0.112 C 
HETATM   19  C12         0      68.742  24.918  17.264  1.00  0.00     0.028 C 
BRANCH  17  20
HETATM   20  O9          0      70.620  27.686  15.913  1.00  0.00    -0.357 OA
HETATM   21  H9          0      71.433  27.958  15.503  1.00  0.00     0.218 HD
ENDBRANCH  17  20
BRANCH  18  22
HETATM   22  O11         0      69.681  26.836  18.425  1.00  0.00    -0.357 OA
HETATM   23  H11         0      69.067  27.560  18.401  1.00  0.00     0.218 HD
ENDBRANCH  18  22
ENDBRANCH   4  14
BRANCH   8  24
HETATM   24  O17         0      62.052  25.882  17.257  1.00  0.00    -0.359 OA
HETATM   25  H17         0      62.220  26.816  17.278  1.00  0.00     0.218 HD
ENDBRANCH   8  24
TORSDOF 5
ENDMDL
MODEL 2
REMARK VINA RESULT:      -7.5      2.006      6.762
REMARK  5 active torsions:
REMARK  status: ('A' for Active; 'I' for Inactive)
REMARK    1  A    between atoms: C4_4  and  C5_5 
REMARK    2  A    between atoms: C8_8  and  O9_9 
REMARK    3  A    between atoms: C10_11  and  O11_12 
REMARK    4  A    between atoms: C16_18  and  O17_19 
REMARK    5  A    between atoms: C19_22  and  O20_23 
ROOT
HETATM    1  O1          0      67.577  26.753  17.634  1.00  0.00    -0.286 OA
HETATM    2  C2          0      66.838  25.892  17.083  1.00  0.00     0.201 C 
HETATM    3  C3          0      65.457  25.913  17.182  1.00  0.00     0.067 C 
HETATM    4  C4          0      64.672  24.896  16.652  1.00  0.00     0.103 C 
HETATM    5  O13         0      65.267  23.898  16.022  1.00  0.00    -0.307 OA
HETATM    6  C14         0      66.576  23.810  15.932  1.00  0.00     0.107 C 
HETATM    7  C15         0      67.209  22.610  15.642  1.00  0.00     0.049 C 
HETATM    8  C16         0      68.582  22.463  15.798  1.00  0.00     0.093 C 
HETATM    9  C18         0      69.311  23.644  15.726  1.00  0.00     0.048 C 
HETATM   10  C19         0      68.698  24.866  15.964  1.00  0.00     0.096 C 
HETATM   11  C21         0      67.362  24.911  16.255  1.00  0.00     0.084 C 
ENDROOT
BRANCH  10  12
HETATM   12  O20         0      69.480  25.962  16.318  1.00  0.00    -0.359 OA
HETATM   13  H20         0      70.389  25.967  16.045  1.00  0.00     0.218 HD
ENDBRANCH  10  12
BRANCH   4  14
HETATM   14  C5          0      63.371  24.657  17.280  1.00  0.00     0.025 C 
HETATM   15  C6          0      63.234  24.299  18.613  1.00  0.00     0.004 C 
HETATM   16  C7          0      62.166  24.842  19.320  1.00  0.00     0.026 C 
HETATM   17  C8          0      61.189  25.608  18.691  1.00  0.00     0.112 C 
HETATM   18  C10         0      61.063  25.380  17.328  1.00  0.00     0.112 C 
HETATM   19  C12         0      62.172  24.918  16.629  1.00  0.00     0.028 C 
BRANCH  17  20
HETATM   20  O9          0      60.567  26.649  19.358  1.00  0.00    -0.357 OA
HETATM   21  H9          0      60.722  27.566  19.165  1.00  0.00     0.218 HD
ENDBRANCH  17  20
BRANCH  18  22
HETATM   22  O11         0      59.984  25.974  16.689  1.00  0.00    -0.357 OA
HETATM   23  H11         0      59.182  26.062  17.191  1.00  0.00     0.218 HD
ENDBRANCH  18  22
ENDBRANCH   4  14
BRANCH   8  24
HETATM   24  O17         0      69.135  21.287  16.318  1.00  0.00    -0.359 OA
HETATM   25  H17         0      69.298  20.527  15.771  1.00  0.00     0.218 HD
ENDBRANCH   8  24
TORSDOF 5
ENDMDL
MODEL 3
REMARK VINA RESULT:      -7.5      1.274      1.468
REMARK  5 active torsions:
REMARK  status: ('A' for Active; 'I' for Inactive)
REMARK    1  A    between atoms: C4_4  and  C5_5 
REMARK    2  A    between atoms: C8_8  and  O9_9 
REMARK    3  A    between atoms: C10_11  and  O11_12 
REMARK    4  A    between atoms: C16_18  and  O17_19 
REMARK    5  A    between atoms: C19_22  and  O20_23 
ROOT
HETATM    1  O1          0      65.329  21.081  16.657  1.00  0.00    -0.286 OA
HETATM    2  C2          0      65.672  22.288  16.529  1.00  0.00     0.201 C 
HETATM    3  C3          0      66.947  22.670  16.145  1.00  0.00     0.067 C 
HETATM    4  C4          0      67.328  24.006  16.111  1.00  0.00     0.103 C 
HETATM    5  O13         0      66.439  24.928  16.434  1.00  0.00    -0.307 OA
HETATM    6  C14         0      65.227  24.619  16.841  1.00  0.00     0.107 C 
HETATM    7  C15         0      64.442  25.518  17.549  1.00  0.00     0.049 C 
HETATM    8  C16         0      63.279  25.110  18.192  1.00  0.00     0.093 C 
HETATM    9  C18         0      62.689  23.966  17.668  1.00  0.00     0.048 C 
HETATM   10  C19         0      63.435  23.069  16.916  1.00  0.00     0.096 C 
HETATM   11  C21         0      64.758  23.321  16.674  1.00  0.00     0.084 C 
ENDROOT
BRANCH  10  12
HETATM   12  O20         0      62.983  21.760  16.774  1.00  0.00    -0.359 OA
HETATM   13  H20         0      62.067  21.626  16.562  1.00  0.00     0.218 HD
ENDBRANCH  10  12
BRANCH   4  14
HETATM   14  C5          0      68.750  24.302  16.297  1.00  0.00     0.025 C 
HETATM   15  C6          0      69.752  23.388  16.006  1.00  0.00     0.004 C 
HETATM   16  C7          0      70.923  23.876  15.435  1.00  0.00     0.026 C 
HETATM   17  C8          0      71.147  25.240  15.282  1.00  0.00     0.112 C 
HETATM   18  C10         0      70.418  26.048  16.146  1.00  0.00     0.112 C 
HETATM   19  C12         0      69.208  25.569  16.635  1.00  0.00     0.028 C 
BRANCH  17  20
HETATM   20  O9          0      71.875  25.724  14.210  1.00  0.00    -0.357 OA
HETATM   21  H9          0      72.792  25.968  14.262  1.00  0.00     0.218 HD
ENDBRANCH  17  20
BRANCH  18  22
HETATM   22  O11         0      70.740  27.397  16.167  1.00  0.00    -0.357 OA
HETATM   23  H11         0      71.548  27.653  15.737  1.00  0.00     0.218 HD
ENDBRANCH  18  22
ENDBRANCH   4  14
BRANCH   8  24
HETATM   24  O17         0      62.932  25.606  19.454  1.00  0.00    -0.359 OA
HETATM   25  H17         0      63.314  26.404  19.799  1.00  0.00     0.218 HD
ENDBRANCH   8  24
TORSDOF 5
ENDMDL
MODEL 4
REMARK VINA RESULT:      -7.4      2.055      6.728
REMARK  5 active torsions:
REMARK  status: ('A' for Active; 'I' for Inactive)
REMARK    1  A    between atoms: C4_4  and  C5_5 
REMARK    2  A    between atoms: C8_8  and  O9_9 
REMARK    3  A    between atoms: C10_11  and  O11_12 
REMARK    4  A    between atoms: C16_18  and  O17_19 
REMARK    5  A    between atoms: C19_22  and  O20_23 
ROOT
HETATM    1  O1          0      67.497  26.658  17.594  1.00  0.00    -0.286 OA
HETATM    2  C2          0      66.811  25.784  16.997  1.00  0.00     0.201 C 
HETATM    3  C3          0      65.427  25.764  17.031  1.00  0.00     0.067 C 
HETATM    4  C4          0      64.699  24.731  16.451  1.00  0.00     0.103 C 
HETATM    5  O13         0      65.352  23.761  15.837  1.00  0.00    -0.307 OA
HETATM    6  C14         0      66.666  23.712  15.808  1.00  0.00     0.107 C 
HETATM    7  C15         0      67.347  22.535  15.534  1.00  0.00     0.049 C 
HETATM    8  C16         0      68.715  22.425  15.753  1.00  0.00     0.093 C 
HETATM    9  C18         0      69.411  23.628  15.731  1.00  0.00     0.048 C 
HETATM   10  C19         0      68.752  24.829  15.955  1.00  0.00     0.096 C 
HETATM   11  C21         0      67.402  24.830  16.182  1.00  0.00     0.084 C 
ENDROOT
BRANCH  10  12
HETATM   12  O20         0      69.483  25.941  16.361  1.00  0.00    -0.359 OA
HETATM   13  H20         0      70.079  26.334  15.735  1.00  0.00     0.218 HD
ENDBRANCH  10  12
BRANCH   4  14
HETATM   14  C5          0      63.377  24.446  17.012  1.00  0.00     0.025 C 
HETATM   15  C6          0      62.259  24.214  16.224  1.00  0.00     0.004 C 
HETATM   16  C7          0      61.361  23.240  16.651  1.00  0.00     0.026 C 
HETATM   17  C8          0      61.497  22.613  17.884  1.00  0.00     0.112 C 
HETATM   18  C10         0      62.223  23.332  18.824  1.00  0.00     0.112 C 
HETATM   19  C12         0      63.175  24.238  18.371  1.00  0.00     0.028 C 
BRANCH  17  20
HETATM   20  O9          0      61.113  21.295  18.055  1.00  0.00    -0.357 OA
HETATM   21  H9          0      60.484  20.851  17.497  1.00  0.00     0.218 HD
ENDBRANCH  17  20
BRANCH  18  22
HETATM   22  O11         0      62.229  22.843  20.122  1.00  0.00    -0.357 OA
HETATM   23  H11         0      61.434  22.419  20.426  1.00  0.00     0.218 HD
ENDBRANCH  18  22
ENDBRANCH   4  14
BRANCH   8  24
HETATM   24  O17         0      69.278  21.259  16.283  1.00  0.00    -0.359 OA
HETATM   25  H17         0      68.774  20.459  16.374  1.00  0.00     0.218 HD
ENDBRANCH   8  24
TORSDOF 5
ENDMDL
MODEL 5
REMARK VINA RESULT:      -7.3      2.440      3.903
REMARK  5 active torsions:
REMARK  status: ('A' for Active; 'I' for Inactive)
REMARK    1  A    between atoms: C4_4  and  C5_5 
REMARK    2  A    between atoms: C8_8  and  O9_9 
REMARK    3  A    between atoms: C10_11  and  O11_12 
REMARK    4  A    between atoms: C16_18  and  O17_19 
REMARK    5  A    between atoms: C19_22  and  O20_23 
ROOT
HETATM    1  O1          0      66.309  26.185  16.703  1.00  0.00    -0.286 OA
HETATM    2  C2          0      66.748  25.020  16.495  1.00  0.00     0.201 C 
HETATM    3  C3          0      68.034  24.773  16.043  1.00  0.00     0.067 C 
HETATM    4  C4          0      68.459  23.488  15.724  1.00  0.00     0.103 C 
HETATM    5  O13         0      67.614  22.483  15.878  1.00  0.00    -0.307 OA
HETATM    6  C14         0      66.372  22.668  16.267  1.00  0.00     0.107 C 
HETATM    7  C15         0      65.389  21.713  16.051  1.00  0.00     0.049 C 
HETATM    8  C16         0      64.043  22.010  16.229  1.00  0.00     0.093 C 
HETATM    9  C18         0      63.783  23.059  17.103  1.00  0.00     0.048 C 
HETATM   10  C19         0      64.760  24.006  17.379  1.00  0.00     0.096 C 
HETATM   11  C21         0      65.994  23.897  16.797  1.00  0.00     0.084 C 
ENDROOT
BRANCH  10  12
HETATM   12  O20         0      64.382  25.248  17.879  1.00  0.00    -0.359 OA
HETATM   13  H20         0      63.680  25.275  18.518  1.00  0.00     0.218 HD
ENDBRANCH  10  12
BRANCH   4  14
HETATM   14  C5          0      69.529  23.363  14.733  1.00  0.00     0.025 C 
HETATM   15  C6          0      69.934  22.143  14.213  1.00  0.00     0.004 C 
HETATM   16  C7          0      70.271  22.097  12.864  1.00  0.00     0.026 C 
HETATM   17  C8          0      70.335  23.249  12.089  1.00  0.00     0.112 C 
HETATM   18  C10         0      70.540  24.420  12.806  1.00  0.00     0.112 C 
HETATM   19  C12         0      70.116  24.468  14.129  1.00  0.00     0.028 C 
BRANCH  17  20
HETATM   20  O9          0      70.003  23.219  10.746  1.00  0.00    -0.357 OA
HETATM   21  H9          0      69.697  22.440  10.295  1.00  0.00     0.218 HD
ENDBRANCH  17  20
BRANCH  18  22
HETATM   22  O11         0      70.799  25.569  12.072  1.00  0.00    -0.357 OA
HETATM   23  H11         0      70.085  25.916  11.549  1.00  0.00     0.218 HD
ENDBRANCH  18  22
ENDBRANCH   4  14
BRANCH   8  24
HETATM   24  O17         0      63.067  21.527  15.350  1.00  0.00    -0.359 OA
HETATM   25  H17         0      62.153  21.770  15.437  1.00  0.00     0.218 HD
ENDBRANCH   8  24
TORSDOF 5
ENDMDL
MODEL 6
REMARK VINA RESULT:      -7.1      1.693      6.326
REMARK  5 active torsions:
REMARK  status: ('A' for Active; 'I' for Inactive)
REMARK    1  A    between atoms: C4_4  and  C5_5 
REMARK    2  A    between atoms: C8_8  and  O9_9 
REMARK    3  A    between atoms: C10_11  and  O11_12 
REMARK    4  A    between atoms: C16_18  and  O17_19 
REMARK    5  A    between atoms: C19_22  and  O20_23 
ROOT
HETATM    1  O1          0      69.037  22.066  14.655  1.00  0.00    -0.286 OA
HETATM    2  C2          0      68.313  22.734  15.443  1.00  0.00     0.201 C 
HETATM    3  C3          0      66.959  22.493  15.606  1.00  0.00     0.067 C 
HETATM    4  C4          0      66.165  23.310  16.403  1.00  0.00     0.103 C 
HETATM    5  O13         0      66.729  24.325  17.032  1.00  0.00    -0.307 OA
HETATM    6  C14         0      68.002  24.620  16.883  1.00  0.00     0.107 C 
HETATM    7  C15         0      68.503  25.875  17.200  1.00  0.00     0.049 C 
HETATM    8  C16         0      69.779  26.262  16.807  1.00  0.00     0.093 C 
HETATM    9  C18         0      70.667  25.217  16.585  1.00  0.00     0.048 C 
HETATM   10  C19         0      70.199  23.939  16.312  1.00  0.00     0.096 C 
HETATM   11  C21         0      68.852  23.702  16.277  1.00  0.00     0.084 C 
ENDROOT
BRANCH  10  12
HETATM   12  O20         0      71.038  23.029  15.676  1.00  0.00    -0.359 OA
HETATM   13  H20         0      71.759  23.372  15.162  1.00  0.00     0.218 HD
ENDBRANCH  10  12
BRANCH   4  14
HETATM   14  C5          0      64.741  23.390  16.070  1.00  0.00     0.025 C 
HETATM   15  C6          0      63.926  22.271  15.980  1.00  0.00     0.004 C 
HETATM   16  C7          0      62.624  22.382  16.457  1.00  0.00     0.026 C 
HETATM   17  C8          0      62.105  23.599  16.885  1.00  0.00     0.112 C 
HETATM   18  C10         0      62.739  24.717  16.358  1.00  0.00     0.112 C 
HETATM   19  C12         0      64.067  24.600  15.968  1.00  0.00     0.028 C 
BRANCH  17  20
HETATM   20  O9          0      61.180  23.654  17.912  1.00  0.00    -0.357 OA
HETATM   21  H9          0      60.778  22.886  18.302  1.00  0.00     0.218 HD
ENDBRANCH  17  20
BRANCH  18  22
HETATM   22  O11         0      62.146  25.948  16.601  1.00  0.00    -0.357 OA
HETATM   23  H11         0      61.266  26.075  16.265  1.00  0.00     0.218 HD
ENDBRANCH  18  22
ENDBRANCH   4  14
BRANCH   8  24
HETATM   24  O17         0      70.038  27.558  16.348  1.00  0.00    -0.359 OA
HETATM   25  H17         0      70.704  27.732  15.693  1.00  0.00     0.218 HD
ENDBRANCH   8  24
TORSDOF 5
ENDMDL
MODEL 7
REMARK VINA RESULT:      -7.0      3.320      5.304
REMARK  5 active torsions:
REMARK  status: ('A' for Active; 'I' for Inactive)
REMARK    1  A    between atoms: C4_4  and  C5_5 
REMARK    2  A    between atoms: C8_8  and  O9_9 
REMARK    3  A    between atoms: C10_11  and  O11_12 
REMARK    4  A    between atoms: C16_18  and  O17_19 
REMARK    5  A    between atoms: C19_22  and  O20_23 
ROOT
HETATM    1  O1          0      69.095  25.944  16.456  1.00  0.00    -0.286 OA
HETATM    2  C2          0      68.655  24.763  16.391  1.00  0.00     0.201 C 
HETATM    3  C3          0      69.471  23.671  16.152  1.00  0.00     0.067 C 
HETATM    4  C4          0      68.948  22.394  15.983  1.00  0.00     0.103 C 
HETATM    5  O13         0      67.641  22.226  16.074  1.00  0.00    -0.307 OA
HETATM    6  C14         0      66.818  23.235  16.261  1.00  0.00     0.107 C 
HETATM    7  C15         0      65.466  23.141  15.963  1.00  0.00     0.049 C 
HETATM    8  C16         0      64.657  24.269  15.920  1.00  0.00     0.093 C 
HETATM    9  C18         0      65.107  25.344  16.677  1.00  0.00     0.048 C 
HETATM   10  C19         0      66.445  25.445  17.033  1.00  0.00     0.096 C 
HETATM   11  C21         0      67.325  24.470  16.649  1.00  0.00     0.084 C 
ENDROOT
BRANCH  10  12
HETATM   12  O20         0      66.962  26.687  17.391  1.00  0.00    -0.359 OA
HETATM   13  H20         0      67.199  26.825  18.300  1.00  0.00     0.218 HD
ENDBRANCH  10  12
BRANCH   4  14
HETATM   14  C5          0      69.725  21.454  15.172  1.00  0.00     0.025 C 
HETATM   15  C6          0      70.660  20.586  15.716  1.00  0.00     0.004 C 
HETATM   16  C7          0      70.742  19.306  15.176  1.00  0.00     0.026 C 
HETATM   17  C8          0      70.015  18.942  14.048  1.00  0.00     0.112 C 
HETATM   18  C10         0      69.633  20.003  13.238  1.00  0.00     0.112 C 
HETATM   19  C12         0      69.476  21.255  13.820  1.00  0.00     0.028 C 
BRANCH  17  20
HETATM   20  O9          0      69.549  17.649  13.892  1.00  0.00    -0.357 OA
HETATM   21  H9          0      69.161  17.139  14.594  1.00  0.00     0.218 HD
ENDBRANCH  17  20
BRANCH  18  22
HETATM   22  O11         0      69.073  19.685  12.009  1.00  0.00    -0.357 OA
HETATM   23  H11         0      68.655  18.835  11.933  1.00  0.00     0.218 HD
ENDBRANCH  18  22
ENDBRANCH   4  14
BRANCH   8  24
HETATM   24  O17         0      63.671  24.422  14.938  1.00  0.00    -0.359 OA
HETATM   25  H17         0      62.978  23.783  14.823  1.00  0.00     0.218 HD
ENDBRANCH   8  24
TORSDOF 5
ENDMDL
MODEL 8
REMARK VINA RESULT:      -6.7      3.045      5.761
REMARK  5 active torsions:
REMARK  status: ('A' for Active; 'I' for Inactive)
REMARK    1  A    between atoms: C4_4  and  C5_5 
REMARK    2  A    between atoms: C8_8  and  O9_9 
REMARK    3  A    between atoms: C10_11  and  O11_12 
REMARK    4  A    between atoms: C16_18  and  O17_19 
REMARK    5  A    between atoms: C19_22  and  O20_23 
ROOT
HETATM    1  O1          0      68.316  21.150  14.400  1.00  0.00    -0.286 OA
HETATM    2  C2          0      68.821  22.242  14.777  1.00  0.00     0.201 C 
HETATM    3  C3          0      68.439  22.884  15.942  1.00  0.00     0.067 C 
HETATM    4  C4          0      68.937  24.137  16.282  1.00  0.00     0.103 C 
HETATM    5  O13         0      69.812  24.711  15.476  1.00  0.00    -0.307 OA
HETATM    6  C14         0      70.180  24.163  14.339  1.00  0.00     0.107 C 
HETATM    7  C15         0      70.762  24.907  13.323  1.00  0.00     0.049 C 
HETATM    8  C16         0      70.914  24.387  12.043  1.00  0.00     0.093 C 
HETATM    9  C18         0      70.964  23.000  11.976  1.00  0.00     0.048 C 
HETATM   10  C19         0      70.433  22.224  12.997  1.00  0.00     0.096 C 
HETATM   11  C21         0      69.871  22.830  14.088  1.00  0.00     0.084 C 
ENDROOT
BRANCH  10  12
HETATM   12  O20         0      70.092  20.900  12.740  1.00  0.00    -0.359 OA
HETATM   13  H20         0      70.751  20.340  12.346  1.00  0.00     0.218 HD
ENDBRANCH  10  12
BRANCH   4  14
HETATM   14  C5          0      68.097  24.985  17.130  1.00  0.00     0.025 C 
HETATM   15  C6          0      68.611  26.001  17.921  1.00  0.00     0.004 C 
HETATM   16  C7          0      67.872  27.175  18.024  1.00  0.00     0.026 C 
HETATM   17  C8          0      66.601  27.288  17.470  1.00  0.00     0.112 C 
HETATM   18  C10         0      65.944  26.080  17.275  1.00  0.00     0.112 C 
HETATM   19  C12         0      66.709  24.934  17.090  1.00  0.00     0.028 C 
BRANCH  17  20
HETATM   20  O9          0      66.150  28.496  16.969  1.00  0.00    -0.357 OA
HETATM   21  H9          0      66.613  29.319  17.080  1.00  0.00     0.218 HD
ENDBRANCH  17  20
BRANCH  18  22
HETATM   22  O11         0      64.609  26.143  16.904  1.00  0.00    -0.357 OA
HETATM   23  H11         0      63.971  26.226  17.604  1.00  0.00     0.218 HD
ENDBRANCH  18  22
ENDBRANCH   4  14
BRANCH   8  24
HETATM   24  O17         0      70.693  25.171  10.906  1.00  0.00    -0.359 OA
HETATM   25  H17         0      70.621  26.117  10.958  1.00  0.00     0.218 HD
ENDBRANCH   8  24
TORSDOF 5
ENDMDL
MODEL 9
REMARK VINA RESULT:      -6.7      3.758      5.480
REMARK  5 active torsions:
REMARK  status: ('A' for Active; 'I' for Inactive)
REMARK    1  A    between atoms: C4_4  and  C5_5 
REMARK    2  A    between atoms: C8_8  and  O9_9 
REMARK    3  A    between atoms: C10_11  and  O11_12 
REMARK    4  A    between atoms: C16_18  and  O17_19 
REMARK    5  A    between atoms: C19_22  and  O20_23 
ROOT
HETATM    1  O1          0      69.301  25.423  15.606  1.00  0.00    -0.286 OA
HETATM    2  C2          0      68.923  24.222  15.521  1.00  0.00     0.201 C 
HETATM    3  C3          0      69.708  23.226  14.966  1.00  0.00     0.067 C 
HETATM    4  C4          0      69.228  21.933  14.791  1.00  0.00     0.103 C 
HETATM    5  O13         0      67.998  21.654  15.185  1.00  0.00    -0.307 OA
HETATM    6  C14         0      67.198  22.571  15.683  1.00  0.00     0.107 C 
HETATM    7  C15         0      65.822  22.398  15.722  1.00  0.00     0.049 C 
HETATM    8  C16         0      64.969  23.458  16.007  1.00  0.00     0.093 C 
HETATM    9  C18         0      65.540  24.489  16.744  1.00  0.00     0.048 C 
HETATM   10  C19         0      66.918  24.662  16.765  1.00  0.00     0.096 C 
HETATM   11  C21         0      67.721  23.801  16.068  1.00  0.00     0.084 C 
ENDROOT
BRANCH  10  12
HETATM   12  O20         0      67.442  25.901  17.119  1.00  0.00    -0.359 OA
HETATM   13  H20         0      67.374  26.170  18.027  1.00  0.00     0.218 HD
ENDBRANCH  10  12
BRANCH   4  14
HETATM   14  C5          0      69.820  21.139  13.713  1.00  0.00     0.025 C 
HETATM   15  C6          0      69.408  19.848  13.417  1.00  0.00     0.004 C 
HETATM   16  C7          0      69.352  19.480  12.076  1.00  0.00     0.026 C 
HETATM   17  C8          0      69.815  20.321  11.070  1.00  0.00     0.112 C 
HETATM   18  C10         0      70.751  21.259  11.483  1.00  0.00     0.112 C 
HETATM   19  C12         0      70.731  21.672  12.810  1.00  0.00     0.028 C 
BRANCH  17  20
HETATM   20  O9          0      69.215  20.332   9.823  1.00  0.00    -0.357 OA
HETATM   21  H9          0      68.338  20.663   9.662  1.00  0.00     0.218 HD
ENDBRANCH  17  20
BRANCH  18  22
HETATM   22  O11         0      71.385  21.994  10.491  1.00  0.00    -0.357 OA
HETATM   23  H11         0      70.867  22.223   9.728  1.00  0.00     0.218 HD
ENDBRANCH  18  22
ENDBRANCH   4  14
BRANCH   8  24
HETATM   24  O17         0      63.759  23.624  15.326  1.00  0.00    -0.359 OA
HETATM   25  H17         0      63.732  23.803  14.393  1.00  0.00     0.218 HD
ENDBRANCH   8  24
TORSDOF 5
ENDMDL
