MODEL 1
REMARK VINA RESULT:      -4.9      0.000      0.000
REMARK  5 active torsions:
REMARK  status: ('A' for Active; 'I' for Inactive)
REMARK    1  A    between atoms: C4_4  and  C5_5 
REMARK    2  A    between atoms: C8_8  and  O9_9 
REMARK    3  A    between atoms: C10_11  and  O11_12 
REMARK    4  A    between atoms: C16_18  and  O17_19 
REMARK    5  A    between atoms: C19_22  and  O20_23 
ROOT
HETATM    1  O1          0      24.385  92.025 -24.800  1.00  0.00    -0.286 OA
HETATM    2  C2          0      25.595  92.366 -24.908  1.00  0.00     0.201 C 
HETATM    3  C3          0      26.165  92.739 -26.114  1.00  0.00     0.067 C 
HETATM    4  C4          0      27.524  93.010 -26.224  1.00  0.00     0.103 C 
HETATM    5  O13         0      28.278  92.927 -25.142  1.00  0.00    -0.307 OA
HETATM    6  C14         0      27.795  92.541 -23.982  1.00  0.00     0.107 C 
HETATM    7  C15         0      28.617  92.071 -22.968  1.00  0.00     0.049 C 
HETATM    8  C16         0      28.092  91.432 -21.851  1.00  0.00     0.093 C 
HETATM    9  C18         0      26.774  91.757 -21.554  1.00  0.00     0.048 C 
HETATM   10  C19         0      25.937  92.273 -22.534  1.00  0.00     0.096 C 
HETATM   11  C21         0      26.418  92.480 -23.798  1.00  0.00     0.084 C 
ENDROOT
BRANCH  10  12
HETATM   12  O20         0      24.558  92.184 -22.367  1.00  0.00    -0.359 OA
HETATM   13  H20         0      24.196  91.351 -22.090  1.00  0.00     0.218 HD
ENDBRANCH  10  12
BRANCH   4  14
HETATM   14  C5          0      28.145  92.801 -27.534  1.00  0.00     0.025 C 
HETATM   15  C6          0      29.506  92.952 -27.753  1.00  0.00     0.004 C 
HETATM   16  C7          0      30.123  92.054 -28.618  1.00  0.00     0.026 C 
HETATM   17  C8          0      29.392  91.121 -29.345  1.00  0.00     0.112 C 
HETATM   18  C10         0      28.059  91.457 -29.544  1.00  0.00     0.112 C 
HETATM   19  C12         0      27.442  92.289 -28.617  1.00  0.00     0.028 C 
BRANCH  17  20
HETATM   20  O9          0      29.923  89.879 -29.642  1.00  0.00    -0.357 OA
HETATM   21  H9          0      29.397  89.102 -29.794  1.00  0.00     0.218 HD
ENDBRANCH  17  20
BRANCH  18  22
HETATM   22  O11         0      27.334  90.660 -30.418  1.00  0.00    -0.357 OA
HETATM   23  H11         0      27.480  90.796 -31.347  1.00  0.00     0.218 HD
ENDBRANCH  18  22
ENDBRANCH   4  14
BRANCH   8  24
HETATM   24  O17         0      28.719  90.314 -21.289  1.00  0.00    -0.359 OA
HETATM   25  H17         0      29.575  90.022 -21.580  1.00  0.00     0.218 HD
ENDBRANCH   8  24
TORSDOF 5
ENDMDL
MODEL 2
REMARK VINA RESULT:      -4.6      3.503      6.842
REMARK  5 active torsions:
REMARK  status: ('A' for Active; 'I' for Inactive)
REMARK    1  A    between atoms: C4_4  and  C5_5 
REMARK    2  A    between atoms: C8_8  and  O9_9 
REMARK    3  A    between atoms: C10_11  and  O11_12 
REMARK    4  A    between atoms: C16_18  and  O17_19 
REMARK    5  A    between atoms: C19_22  and  O20_23 
ROOT
HETATM    1  O1          0      26.699  94.171 -24.954  1.00  0.00    -0.286 OA
HETATM    2  C2          0      26.433  93.278 -24.103  1.00  0.00     0.201 C 
HETATM    3  C3          0      25.137  92.919 -23.773  1.00  0.00     0.067 C 
HETATM    4  C4          0      24.871  92.006 -22.759  1.00  0.00     0.103 C 
HETATM    5  O13         0      25.886  91.459 -22.113  1.00  0.00    -0.307 OA
HETATM    6  C14         0      27.133  91.793 -22.361  1.00  0.00     0.107 C 
HETATM    7  C15         0      28.151  91.545 -21.452  1.00  0.00     0.049 C 
HETATM    8  C16         0      29.408  92.120 -21.600  1.00  0.00     0.093 C 
HETATM    9  C18         0      29.739  92.479 -22.901  1.00  0.00     0.048 C 
HETATM   10  C19         0      28.747  92.690 -23.849  1.00  0.00     0.096 C 
HETATM   11  C21         0      27.433  92.527 -23.504  1.00  0.00     0.084 C 
ENDROOT
BRANCH  10  12
HETATM   12  O20         0      29.036  93.450 -24.978  1.00  0.00    -0.359 OA
HETATM   13  H20         0      29.792  93.206 -25.498  1.00  0.00     0.218 HD
ENDBRANCH  10  12
BRANCH   4  14
HETATM   14  C5          0      23.581  92.123 -22.075  1.00  0.00     0.025 C 
HETATM   15  C6          0      23.470  92.257 -20.698  1.00  0.00     0.004 C 
HETATM   16  C7          0      22.484  93.109 -20.211  1.00  0.00     0.026 C 
HETATM   17  C8          0      21.553  93.705 -21.055  1.00  0.00     0.112 C 
HETATM   18  C10         0      21.349  93.039 -22.256  1.00  0.00     0.112 C 
HETATM   19  C12         0      22.383  92.261 -22.763  1.00  0.00     0.028 C 
BRANCH  17  20
HETATM   20  O9          0      21.053  94.966 -20.781  1.00  0.00    -0.357 OA
HETATM   21  H9          0      21.201  95.724 -21.334  1.00  0.00     0.218 HD
ENDBRANCH  17  20
BRANCH  18  22
HETATM   22  O11         0      20.300  93.481 -23.049  1.00  0.00    -0.357 OA
HETATM   23  H11         0      20.488  94.189 -23.655  1.00  0.00     0.218 HD
ENDBRANCH  18  22
ENDBRANCH   4  14
BRANCH   8  24
HETATM   24  O17         0      30.123  92.602 -20.498  1.00  0.00    -0.359 OA
HETATM   25  H17         0      30.552  92.015 -19.887  1.00  0.00     0.218 HD
ENDBRANCH   8  24
TORSDOF 5
ENDMDL
MODEL 3
REMARK VINA RESULT:      -4.5      2.956      4.567
REMARK  5 active torsions:
REMARK  status: ('A' for Active; 'I' for Inactive)
REMARK    1  A    between atoms: C4_4  and  C5_5 
REMARK    2  A    between atoms: C8_8  and  O9_9 
REMARK    3  A    between atoms: C10_11  and  O11_12 
REMARK    4  A    between atoms: C16_18  and  O17_19 
REMARK    5  A    between atoms: C19_22  and  O20_23 
ROOT
HETATM    1  O1          0      24.939  91.472 -21.885  1.00  0.00    -0.286 OA
HETATM    2  C2          0      25.376  92.154 -22.853  1.00  0.00     0.201 C 
HETATM    3  C3          0      24.544  92.831 -23.729  1.00  0.00     0.067 C 
HETATM    4  C4          0      25.045  93.491 -24.846  1.00  0.00     0.103 C 
HETATM    5  O13         0      26.350  93.481 -25.057  1.00  0.00    -0.307 OA
HETATM    6  C14         0      27.179  92.822 -24.277  1.00  0.00     0.107 C 
HETATM    7  C15         0      28.455  92.475 -24.696  1.00  0.00     0.049 C 
HETATM    8  C16         0      29.228  91.569 -23.979  1.00  0.00     0.093 C 
HETATM    9  C18         0      28.909  91.463 -22.631  1.00  0.00     0.048 C 
HETATM   10  C19         0      27.657  91.846 -22.170  1.00  0.00     0.096 C 
HETATM   11  C21         0      26.735  92.348 -23.048  1.00  0.00     0.084 C 
ENDROOT
BRANCH  10  12
HETATM   12  O20         0      27.197  91.347 -20.956  1.00  0.00    -0.359 OA
HETATM   13  H20         0      27.195  90.405 -20.833  1.00  0.00     0.218 HD
ENDBRANCH  10  12
BRANCH   4  14
HETATM   14  C5          0      24.147  93.643 -25.992  1.00  0.00     0.025 C 
HETATM   15  C6          0      24.559  93.443 -27.302  1.00  0.00     0.004 C 
HETATM   16  C7          0      23.665  92.824 -28.170  1.00  0.00     0.026 C 
HETATM   17  C8          0      22.359  92.535 -27.790  1.00  0.00     0.112 C 
HETATM   18  C10         0      21.873  93.315 -26.749  1.00  0.00     0.112 C 
HETATM   19  C12         0      22.782  93.852 -25.845  1.00  0.00     0.028 C 
BRANCH  17  20
HETATM   20  O9          0      21.708  91.419 -28.283  1.00  0.00    -0.357 OA
HETATM   21  H9          0      20.763  91.312 -28.274  1.00  0.00     0.218 HD
ENDBRANCH  17  20
BRANCH  18  22
HETATM   22  O11         0      20.521  93.201 -26.457  1.00  0.00    -0.357 OA
HETATM   23  H11         0      19.911  93.426 -27.150  1.00  0.00     0.218 HD
ENDBRANCH  18  22
ENDBRANCH   4  14
BRANCH   8  24
HETATM   24  O17         0      30.017  90.611 -24.626  1.00  0.00    -0.359 OA
HETATM   25  H17         0      30.076  90.570 -25.574  1.00  0.00     0.218 HD
ENDBRANCH   8  24
TORSDOF 5
ENDMDL
MODEL 4
REMARK VINA RESULT:      -4.2      2.056      3.591
REMARK  5 active torsions:
REMARK  status: ('A' for Active; 'I' for Inactive)
REMARK    1  A    between atoms: C4_4  and  C5_5 
REMARK    2  A    between atoms: C8_8  and  O9_9 
REMARK    3  A    between atoms: C10_11  and  O11_12 
REMARK    4  A    between atoms: C16_18  and  O17_19 
REMARK    5  A    between atoms: C19_22  and  O20_23 
ROOT
HETATM    1  O1          0      27.907  92.789 -22.299  1.00  0.00    -0.286 OA
HETATM    2  C2          0      26.993  92.446 -23.098  1.00  0.00     0.201 C 
HETATM    3  C3          0      27.171  92.413 -24.471  1.00  0.00     0.067 C 
HETATM    4  C4          0      26.119  92.130 -25.335  1.00  0.00     0.103 C 
HETATM    5  O13         0      24.929  91.869 -24.823  1.00  0.00    -0.307 OA
HETATM    6  C14         0      24.698  91.923 -23.530  1.00  0.00     0.107 C 
HETATM    7  C15         0      23.413  92.048 -23.022  1.00  0.00     0.049 C 
HETATM    8  C16         0      23.192  92.359 -21.686  1.00  0.00     0.093 C 
HETATM    9  C18         0      24.227  92.016 -20.824  1.00  0.00     0.048 C 
HETATM   10  C19         0      25.516  91.837 -21.306  1.00  0.00     0.096 C 
HETATM   11  C21         0      25.768  91.984 -22.643  1.00  0.00     0.084 C 
ENDROOT
BRANCH  10  12
HETATM   12  O20         0      26.590  91.929 -20.426  1.00  0.00    -0.359 OA
HETATM   13  H20         0      27.006  91.123 -20.145  1.00  0.00     0.218 HD
ENDBRANCH  10  12
BRANCH   4  14
HETATM   14  C5          0      26.197  92.683 -26.689  1.00  0.00     0.025 C 
HETATM   15  C6          0      27.348  92.619 -27.462  1.00  0.00     0.004 C 
HETATM   16  C7          0      27.196  92.385 -28.825  1.00  0.00     0.026 C 
HETATM   17  C8          0      25.941  92.350 -29.424  1.00  0.00     0.112 C 
HETATM   18  C10         0      24.949  93.033 -28.732  1.00  0.00     0.112 C 
HETATM   19  C12         0      25.085  93.178 -27.356  1.00  0.00     0.028 C 
BRANCH  17  20
HETATM   20  O9          0      25.692  91.519 -30.501  1.00  0.00    -0.357 OA
HETATM   21  H9          0      25.124  91.750 -31.226  1.00  0.00     0.218 HD
ENDBRANCH  17  20
BRANCH  18  22
HETATM   22  O11         0      23.730  93.190 -29.374  1.00  0.00    -0.357 OA
HETATM   23  H11         0      23.731  93.690 -30.183  1.00  0.00     0.218 HD
ENDBRANCH  18  22
ENDBRANCH   4  14
BRANCH   8  24
HETATM   24  O17         0      22.176  93.242 -21.301  1.00  0.00    -0.359 OA
HETATM   25  H17         0      22.310  93.890 -20.619  1.00  0.00     0.218 HD
ENDBRANCH   8  24
TORSDOF 5
ENDMDL
MODEL 5
REMARK VINA RESULT:      -4.1      2.001      6.337
REMARK  5 active torsions:
REMARK  status: ('A' for Active; 'I' for Inactive)
REMARK    1  A    between atoms: C4_4  and  C5_5 
REMARK    2  A    between atoms: C8_8  and  O9_9 
REMARK    3  A    between atoms: C10_11  and  O11_12 
REMARK    4  A    between atoms: C16_18  and  O17_19 
REMARK    5  A    between atoms: C19_22  and  O20_23 
ROOT
HETATM    1  O1          0      25.297  92.854 -26.154  1.00  0.00    -0.286 OA
HETATM    2  C2          0      26.495  92.470 -26.050  1.00  0.00     0.201 C 
HETATM    3  C3          0      27.060  92.094 -24.843  1.00  0.00     0.067 C 
HETATM    4  C4          0      28.409  91.775 -24.738  1.00  0.00     0.103 C 
HETATM    5  O13         0      29.157  91.815 -25.827  1.00  0.00    -0.307 OA
HETATM    6  C14         0      28.679  92.201 -26.990  1.00  0.00     0.107 C 
HETATM    7  C15         0      29.510  92.626 -28.016  1.00  0.00     0.049 C 
HETATM    8  C16         0      29.000  93.268 -29.138  1.00  0.00     0.093 C 
HETATM    9  C18         0      27.669  92.987 -29.421  1.00  0.00     0.048 C 
HETATM   10  C19         0      26.821  92.516 -28.428  1.00  0.00     0.096 C 
HETATM   11  C21         0      27.304  92.310 -27.164  1.00  0.00     0.084 C 
ENDROOT
BRANCH  10  12
HETATM   12  O20         0      25.445  92.653 -28.586  1.00  0.00    -0.359 OA
HETATM   13  H20         0      24.883  92.016 -28.162  1.00  0.00     0.218 HD
ENDBRANCH  10  12
BRANCH   4  14
HETATM   14  C5          0      29.047  91.980 -23.437  1.00  0.00     0.025 C 
HETATM   15  C6          0      30.101  92.862 -23.247  1.00  0.00     0.004 C 
HETATM   16  C7          0      30.123  93.595 -22.065  1.00  0.00     0.026 C 
HETATM   17  C8          0      29.205  93.365 -21.046  1.00  0.00     0.112 C 
HETATM   18  C10         0      28.634  92.099 -21.056  1.00  0.00     0.112 C 
HETATM   19  C12         0      28.548  91.423 -22.267  1.00  0.00     0.028 C 
BRANCH  17  20
HETATM   20  O9          0      28.764  94.400 -20.241  1.00  0.00    -0.357 OA
HETATM   21  H9          0      27.897  94.436 -19.856  1.00  0.00     0.218 HD
ENDBRANCH  17  20
BRANCH  18  22
HETATM   22  O11         0      27.859  91.751 -19.959  1.00  0.00    -0.357 OA
HETATM   23  H11         0      28.152  91.009 -19.442  1.00  0.00     0.218 HD
ENDBRANCH  18  22
ENDBRANCH   4  14
BRANCH   8  24
HETATM   24  O17         0      29.663  94.354 -29.721  1.00  0.00    -0.359 OA
HETATM   25  H17         0      30.611  94.422 -29.715  1.00  0.00     0.218 HD
ENDBRANCH   8  24
TORSDOF 5
ENDMDL
MODEL 6
REMARK VINA RESULT:      -3.9      2.904      5.701
REMARK  5 active torsions:
REMARK  status: ('A' for Active; 'I' for Inactive)
REMARK    1  A    between atoms: C4_4  and  C5_5 
REMARK    2  A    between atoms: C8_8  and  O9_9 
REMARK    3  A    between atoms: C10_11  and  O11_12 
REMARK    4  A    between atoms: C16_18  and  O17_19 
REMARK    5  A    between atoms: C19_22  and  O20_23 
ROOT
HETATM    1  O1          0      28.521  93.181 -25.690  1.00  0.00    -0.286 OA
HETATM    2  C2          0      27.569  92.758 -24.978  1.00  0.00     0.201 C 
HETATM    3  C3          0      26.244  92.841 -25.370  1.00  0.00     0.067 C 
HETATM    4  C4          0      25.208  92.461 -24.523  1.00  0.00     0.103 C 
HETATM    5  O13         0      25.508  91.992 -23.325  1.00  0.00    -0.307 OA
HETATM    6  C14         0      26.747  91.926 -22.889  1.00  0.00     0.107 C 
HETATM    7  C15         0      27.042  91.824 -21.538  1.00  0.00     0.049 C 
HETATM    8  C16         0      28.335  92.011 -21.065  1.00  0.00     0.093 C 
HETATM    9  C18         0      29.340  91.771 -21.994  1.00  0.00     0.048 C 
HETATM   10  C19         0      29.069  91.819 -23.355  1.00  0.00     0.096 C 
HETATM   11  C21         0      27.798  92.089 -23.785  1.00  0.00     0.084 C 
ENDROOT
BRANCH  10  12
HETATM   12  O20         0      30.116  92.014 -24.251  1.00  0.00    -0.359 OA
HETATM   13  H20         0      30.834  92.574 -23.982  1.00  0.00     0.218 HD
ENDBRANCH  10  12
BRANCH   4  14
HETATM   14  C5          0      23.909  93.107 -24.723  1.00  0.00     0.025 C 
HETATM   15  C6          0      23.449  93.501 -25.971  1.00  0.00     0.004 C 
HETATM   16  C7          0      22.095  93.331 -26.242  1.00  0.00     0.026 C 
HETATM   17  C8          0      21.202  92.911 -25.262  1.00  0.00     0.112 C 
HETATM   18  C10         0      21.614  93.156 -23.959  1.00  0.00     0.112 C 
HETATM   19  C12         0      22.978  93.236 -23.701  1.00  0.00     0.028 C 
BRANCH  17  20
HETATM   20  O9          0      20.109  92.127 -25.588  1.00  0.00    -0.357 OA
HETATM   21  H9          0      20.137  91.420 -26.221  1.00  0.00     0.218 HD
ENDBRANCH  17  20
BRANCH  18  22
HETATM   22  O11         0      20.685  92.930 -22.953  1.00  0.00    -0.357 OA
HETATM   23  H11         0      21.006  92.534 -22.151  1.00  0.00     0.218 HD
ENDBRANCH  18  22
ENDBRANCH   4  14
BRANCH   8  24
HETATM   24  O17         0      28.584  92.705 -19.875  1.00  0.00    -0.359 OA
HETATM   25  H17         0      28.109  93.496 -19.651  1.00  0.00     0.218 HD
ENDBRANCH   8  24
TORSDOF 5
ENDMDL
MODEL 7
REMARK VINA RESULT:      -3.8      2.547      6.198
REMARK  5 active torsions:
REMARK  status: ('A' for Active; 'I' for Inactive)
REMARK    1  A    between atoms: C4_4  and  C5_5 
REMARK    2  A    between atoms: C8_8  and  O9_9 
REMARK    3  A    between atoms: C10_11  and  O11_12 
REMARK    4  A    between atoms: C16_18  and  O17_19 
REMARK    5  A    between atoms: C19_22  and  O20_23 
ROOT
HETATM    1  O1          0      22.499  94.247 -25.774  1.00  0.00    -0.286 OA
HETATM    2  C2          0      23.571  93.583 -25.813  1.00  0.00     0.201 C 
HETATM    3  C3          0      24.226  93.148 -24.673  1.00  0.00     0.067 C 
HETATM    4  C4          0      25.458  92.508 -24.741  1.00  0.00     0.103 C 
HETATM    5  O13         0      26.000  92.297 -25.927  1.00  0.00    -0.307 OA
HETATM    6  C14         0      25.439  92.723 -27.038  1.00  0.00     0.107 C 
HETATM    7  C15         0      26.161  92.867 -28.213  1.00  0.00     0.049 C 
HETATM    8  C16         0      25.637  93.551 -29.304  1.00  0.00     0.093 C 
HETATM    9  C18         0      24.249  93.596 -29.356  1.00  0.00     0.048 C 
HETATM   10  C19         0      23.493  93.409 -28.206  1.00  0.00     0.096 C 
HETATM   11  C21         0      24.120  93.162 -27.015  1.00  0.00     0.084 C 
ENDROOT
BRANCH  10  12
HETATM   12  O20         0      22.183  93.877 -28.170  1.00  0.00    -0.359 OA
HETATM   13  H20         0      21.902  94.354 -27.399  1.00  0.00     0.218 HD
ENDBRANCH  10  12
BRANCH   4  14
HETATM   14  C5          0      26.337  92.622 -23.575  1.00  0.00     0.025 C 
HETATM   15  C6          0      25.905  92.370 -22.281  1.00  0.00     0.004 C 
HETATM   16  C7          0      26.789  91.724 -21.422  1.00  0.00     0.026 C 
HETATM   17  C8          0      28.103  91.457 -21.791  1.00  0.00     0.112 C 
HETATM   18  C10         0      28.601  92.279 -22.794  1.00  0.00     0.112 C 
HETATM   19  C12         0      27.703  92.844 -23.691  1.00  0.00     0.028 C 
BRANCH  17  20
HETATM   20  O9          0      28.753  90.327 -21.331  1.00  0.00    -0.357 OA
HETATM   21  H9          0      28.658  89.985 -20.449  1.00  0.00     0.218 HD
ENDBRANCH  17  20
BRANCH  18  22
HETATM   22  O11         0      29.958  92.184 -23.068  1.00  0.00    -0.357 OA
HETATM   23  H11         0      30.419  92.995 -23.246  1.00  0.00     0.218 HD
ENDBRANCH  18  22
ENDBRANCH   4  14
BRANCH   8  24
HETATM   24  O17         0      26.431  94.401 -30.082  1.00  0.00    -0.359 OA
HETATM   25  H17         0      26.272  95.337 -30.119  1.00  0.00     0.218 HD
ENDBRANCH   8  24
TORSDOF 5
ENDMDL
MODEL 8
REMARK VINA RESULT:      -3.8      2.216      6.629
REMARK  5 active torsions:
REMARK  status: ('A' for Active; 'I' for Inactive)
REMARK    1  A    between atoms: C4_4  and  C5_5 
REMARK    2  A    between atoms: C8_8  and  O9_9 
REMARK    3  A    between atoms: C10_11  and  O11_12 
REMARK    4  A    between atoms: C16_18  and  O17_19 
REMARK    5  A    between atoms: C19_22  and  O20_23 
ROOT
HETATM    1  O1          0      25.105  95.073 -27.646  1.00  0.00    -0.286 OA
HETATM    2  C2          0      25.258  94.048 -26.927  1.00  0.00     0.201 C 
HETATM    3  C3          0      24.553  93.842 -25.754  1.00  0.00     0.067 C 
HETATM    4  C4          0      24.814  92.755 -24.928  1.00  0.00     0.103 C 
HETATM    5  O13         0      25.747  91.892 -25.291  1.00  0.00    -0.307 OA
HETATM    6  C14         0      26.471  92.060 -26.375  1.00  0.00     0.107 C 
HETATM    7  C15         0      27.684  91.411 -26.552  1.00  0.00     0.049 C 
HETATM    8  C16         0      28.560  91.780 -27.567  1.00  0.00     0.093 C 
HETATM    9  C18         0      27.965  92.407 -28.655  1.00  0.00     0.048 C 
HETATM   10  C19         0      26.730  93.026 -28.525  1.00  0.00     0.096 C 
HETATM   11  C21         0      26.084  93.006 -27.319  1.00  0.00     0.084 C 
ENDROOT
BRANCH  10  12
HETATM   12  O20         0      26.354  93.995 -29.450  1.00  0.00    -0.359 OA
HETATM   13  H20         0      25.435  94.231 -29.500  1.00  0.00     0.218 HD
ENDBRANCH  10  12
BRANCH   4  14
HETATM   14  C5          0      24.511  92.907 -23.504  1.00  0.00     0.025 C 
HETATM   15  C6          0      23.297  92.528 -22.949  1.00  0.00     0.004 C 
HETATM   16  C7          0      23.320  91.946 -21.685  1.00  0.00     0.026 C 
HETATM   17  C8          0      24.492  91.865 -20.940  1.00  0.00     0.112 C 
HETATM   18  C10         0      25.461  92.799 -21.281  1.00  0.00     0.112 C 
HETATM   19  C12         0      25.467  93.302 -22.577  1.00  0.00     0.028 C 
BRANCH  17  20
HETATM   20  O9          0      24.719  90.798 -20.090  1.00  0.00    -0.357 OA
HETATM   21  H9          0      25.396  90.789 -19.424  1.00  0.00     0.218 HD
ENDBRANCH  17  20
BRANCH  18  22
HETATM   22  O11         0      26.569  92.888 -20.450  1.00  0.00    -0.357 OA
HETATM   23  H11         0      26.404  93.067 -19.532  1.00  0.00     0.218 HD
ENDBRANCH  18  22
ENDBRANCH   4  14
BRANCH   8  24
HETATM   24  O17         0      29.942  91.825 -27.356  1.00  0.00    -0.359 OA
HETATM   25  H17         0      30.543  91.299 -27.871  1.00  0.00     0.218 HD
ENDBRANCH   8  24
TORSDOF 5
ENDMDL
MODEL 9
REMARK VINA RESULT:      -3.6      2.176      6.276
REMARK  5 active torsions:
REMARK  status: ('A' for Active; 'I' for Inactive)
REMARK    1  A    between atoms: C4_4  and  C5_5 
REMARK    2  A    between atoms: C8_8  and  O9_9 
REMARK    3  A    between atoms: C10_11  and  O11_12 
REMARK    4  A    between atoms: C16_18  and  O17_19 
REMARK    5  A    between atoms: C19_22  and  O20_23 
ROOT
HETATM    1  O1          0      25.631  95.059 -26.818  1.00  0.00    -0.286 OA
HETATM    2  C2          0      25.974  94.023 -26.185  1.00  0.00     0.201 C 
HETATM    3  C3          0      25.858  93.912 -24.809  1.00  0.00     0.067 C 
HETATM    4  C4          0      26.338  92.801 -24.125  1.00  0.00     0.103 C 
HETATM    5  O13         0      26.899  91.824 -24.815  1.00  0.00    -0.307 OA
HETATM    6  C14         0      27.068  91.896 -26.117  1.00  0.00     0.107 C 
HETATM    7  C15         0      27.986  91.094 -26.780  1.00  0.00     0.049 C 
HETATM    8  C16         0      28.344  91.346 -28.100  1.00  0.00     0.093 C 
HETATM    9  C18         0      27.397  92.042 -28.842  1.00  0.00     0.048 C 
HETATM   10  C19         0      26.435  92.817 -28.208  1.00  0.00     0.096 C 
HETATM   11  C21         0      26.407  92.882 -26.842  1.00  0.00     0.084 C 
ENDROOT
BRANCH  10  12
HETATM   12  O20         0      25.795  93.825 -28.923  1.00  0.00    -0.359 OA
HETATM   13  H20         0      25.608  94.640 -28.472  1.00  0.00     0.218 HD
ENDBRANCH  10  12
BRANCH   4  14
HETATM   14  C5          0      26.732  92.994 -22.728  1.00  0.00     0.025 C 
HETATM   15  C6          0      26.727  91.966 -21.797  1.00  0.00     0.004 C 
HETATM   16  C7          0      27.758  91.936 -20.864  1.00  0.00     0.026 C 
HETATM   17  C8          0      28.689  92.966 -20.772  1.00  0.00     0.112 C 
HETATM   18  C10         0      28.254  94.186 -21.274  1.00  0.00     0.112 C 
HETATM   19  C12         0      27.282  94.183 -22.267  1.00  0.00     0.028 C 
BRANCH  17  20
HETATM   20  O9          0      29.997  92.709 -20.404  1.00  0.00    -0.357 OA
HETATM   21  H9          0      30.458  93.185 -19.723  1.00  0.00     0.218 HD
ENDBRANCH  17  20
BRANCH  18  22
HETATM   22  O11         0      29.065  95.287 -21.038  1.00  0.00    -0.357 OA
HETATM   23  H11         0      29.001  96.008 -21.654  1.00  0.00     0.218 HD
ENDBRANCH  18  22
ENDBRANCH   4  14
BRANCH   8  24
HETATM   24  O17         0      29.667  91.212 -28.535  1.00  0.00    -0.359 OA
HETATM   25  H17         0      30.269  90.605 -28.121  1.00  0.00     0.218 HD
ENDBRANCH   8  24
TORSDOF 5
ENDMDL
