MODEL 1
REMARK VINA RESULT:      -4.8      0.000      0.000
REMARK  5 active torsions:
REMARK  status: ('A' for Active; 'I' for Inactive)
REMARK    1  A    between atoms: C4_4  and  C5_5 
REMARK    2  A    between atoms: C8_8  and  O9_9 
REMARK    3  A    between atoms: C10_11  and  O11_12 
REMARK    4  A    between atoms: C16_18  and  O17_19 
REMARK    5  A    between atoms: C19_22  and  O20_23 
ROOT
HETATM    1  O1          0      25.518  16.567  15.547  1.00  0.00    -0.286 OA
HETATM    2  C2          0      25.246  17.548  16.292  1.00  0.00     0.201 C 
HETATM    3  C3          0      26.000  17.876  17.406  1.00  0.00     0.067 C 
HETATM    4  C4          0      25.621  18.899  18.267  1.00  0.00     0.103 C 
HETATM    5  O13         0      24.523  19.583  17.996  1.00  0.00    -0.307 OA
HETATM    6  C14         0      23.752  19.289  16.972  1.00  0.00     0.107 C 
HETATM    7  C15         0      22.432  19.713  16.906  1.00  0.00     0.049 C 
HETATM    8  C16         0      21.554  19.195  15.962  1.00  0.00     0.093 C 
HETATM    9  C18         0      22.156  18.684  14.818  1.00  0.00     0.048 C 
HETATM   10  C19         0      23.488  18.294  14.837  1.00  0.00     0.096 C 
HETATM   11  C21         0      24.219  18.428  15.986  1.00  0.00     0.084 C 
ENDROOT
BRANCH  10  12
HETATM   12  O20         0      23.951  17.407  13.869  1.00  0.00    -0.359 OA
HETATM   13  H20         0      24.725  16.894  14.069  1.00  0.00     0.218 HD
ENDBRANCH  10  12
BRANCH   4  14
HETATM   14  C5          0      26.064  18.802  19.659  1.00  0.00     0.025 C 
HETATM   15  C6          0      25.776  17.711  20.466  1.00  0.00     0.004 C 
HETATM   16  C7          0      26.764  17.280  21.345  1.00  0.00     0.026 C 
HETATM   17  C8          0      27.949  17.988  21.514  1.00  0.00     0.112 C 
HETATM   18  C10         0      27.875  19.332  21.174  1.00  0.00     0.112 C 
HETATM   19  C12         0      26.934  19.723  20.229  1.00  0.00     0.028 C 
BRANCH  17  20
HETATM   20  O9          0      29.134  17.331  21.795  1.00  0.00    -0.357 OA
HETATM   21  H9          0      29.179  16.437  22.112  1.00  0.00     0.218 HD
ENDBRANCH  17  20
BRANCH  18  22
HETATM   22  O11         0      28.967  20.124  21.500  1.00  0.00    -0.357 OA
HETATM   23  H11         0      29.101  20.907  20.978  1.00  0.00     0.218 HD
ENDBRANCH  18  22
ENDBRANCH   4  14
BRANCH   8  24
HETATM   24  O17         0      20.224  18.905  16.285  1.00  0.00    -0.359 OA
HETATM   25  H17         0      19.997  18.198  16.877  1.00  0.00     0.218 HD
ENDBRANCH   8  24
TORSDOF 5
ENDMDL
MODEL 2
REMARK VINA RESULT:      -4.7      1.743      7.092
REMARK  5 active torsions:
REMARK  status: ('A' for Active; 'I' for Inactive)
REMARK    1  A    between atoms: C4_4  and  C5_5 
REMARK    2  A    between atoms: C8_8  and  O9_9 
REMARK    3  A    between atoms: C10_11  and  O11_12 
REMARK    4  A    between atoms: C16_18  and  O17_19 
REMARK    5  A    between atoms: C19_22  and  O20_23 
ROOT
HETATM    1  O1          0      27.220  20.125  21.016  1.00  0.00    -0.286 OA
HETATM    2  C2          0      27.071  19.013  20.439  1.00  0.00     0.201 C 
HETATM    3  C3          0      26.469  18.887  19.198  1.00  0.00     0.067 C 
HETATM    4  C4          0      26.224  17.641  18.631  1.00  0.00     0.103 C 
HETATM    5  O13         0      26.596  16.559  19.291  1.00  0.00    -0.307 OA
HETATM    6  C14         0      27.137  16.621  20.488  1.00  0.00     0.107 C 
HETATM    7  C15         0      27.159  15.525  21.338  1.00  0.00     0.049 C 
HETATM    8  C16         0      27.495  15.659  22.680  1.00  0.00     0.093 C 
HETATM    9  C18         0      28.288  16.761  22.979  1.00  0.00     0.048 C 
HETATM   10  C19         0      28.325  17.856  22.127  1.00  0.00     0.096 C 
HETATM   11  C21         0      27.588  17.844  20.974  1.00  0.00     0.084 C 
ENDROOT
BRANCH  10  12
HETATM   12  O20         0      28.746  19.087  22.619  1.00  0.00    -0.359 OA
HETATM   13  H20         0      29.101  19.715  22.002  1.00  0.00     0.218 HD
ENDBRANCH  10  12
BRANCH   4  14
HETATM   14  C5          0      25.109  17.543  17.687  1.00  0.00     0.025 C 
HETATM   15  C6          0      23.845  18.045  17.962  1.00  0.00     0.004 C 
HETATM   16  C7          0      23.148  18.644  16.917  1.00  0.00     0.026 C 
HETATM   17  C8          0      23.632  18.626  15.613  1.00  0.00     0.112 C 
HETATM   18  C10         0      24.525  17.598  15.340  1.00  0.00     0.112 C 
HETATM   19  C12         0      25.271  17.075  16.390  1.00  0.00     0.028 C 
BRANCH  17  20
HETATM   20  O9          0      23.388  19.681  14.752  1.00  0.00    -0.357 OA
HETATM   21  H9          0      23.853  20.509  14.788  1.00  0.00     0.218 HD
ENDBRANCH  17  20
BRANCH  18  22
HETATM   22  O11         0      24.891  17.420  14.013  1.00  0.00    -0.357 OA
HETATM   23  H11         0      24.503  18.010  13.377  1.00  0.00     0.218 HD
ENDBRANCH  18  22
ENDBRANCH   4  14
BRANCH   8  24
HETATM   24  O17         0      26.816  14.949  23.676  1.00  0.00    -0.359 OA
HETATM   25  H17         0      25.914  15.143  23.901  1.00  0.00     0.218 HD
ENDBRANCH   8  24
TORSDOF 5
ENDMDL
MODEL 3
REMARK VINA RESULT:      -4.6      1.409      1.849
REMARK  5 active torsions:
REMARK  status: ('A' for Active; 'I' for Inactive)
REMARK    1  A    between atoms: C4_4  and  C5_5 
REMARK    2  A    between atoms: C8_8  and  O9_9 
REMARK    3  A    between atoms: C10_11  and  O11_12 
REMARK    4  A    between atoms: C16_18  and  O17_19 
REMARK    5  A    between atoms: C19_22  and  O20_23 
ROOT
HETATM    1  O1          0      24.853  16.842  14.102  1.00  0.00    -0.286 OA
HETATM    2  C2          0      24.292  17.564  14.972  1.00  0.00     0.201 C 
HETATM    3  C3          0      24.938  17.997  16.117  1.00  0.00     0.067 C 
HETATM    4  C4          0      24.267  18.705  17.108  1.00  0.00     0.103 C 
HETATM    5  O13         0      22.987  18.984  16.933  1.00  0.00    -0.307 OA
HETATM    6  C14         0      22.318  18.564  15.882  1.00  0.00     0.107 C 
HETATM    7  C15         0      20.932  18.497  15.876  1.00  0.00     0.049 C 
HETATM    8  C16         0      20.245  17.822  14.875  1.00  0.00     0.093 C 
HETATM    9  C18         0      20.931  17.702  13.672  1.00  0.00     0.048 C 
HETATM   10  C19         0      22.314  17.810  13.634  1.00  0.00     0.096 C 
HETATM   11  C21         0      23.008  18.052  14.788  1.00  0.00     0.084 C 
ENDROOT
BRANCH  10  12
HETATM   12  O20         0      23.009  17.271  12.556  1.00  0.00    -0.359 OA
HETATM   13  H20         0      22.843  17.632  11.693  1.00  0.00     0.218 HD
ENDBRANCH  10  12
BRANCH   4  14
HETATM   14  C5          0      24.786  18.602  18.473  1.00  0.00     0.025 C 
HETATM   15  C6          0      24.542  17.507  19.289  1.00  0.00     0.004 C 
HETATM   16  C7          0      25.577  17.072  20.111  1.00  0.00     0.026 C 
HETATM   17  C8          0      26.769  17.781  20.219  1.00  0.00     0.112 C 
HETATM   18  C10         0      26.675  19.126  19.890  1.00  0.00     0.112 C 
HETATM   19  C12         0      25.684  19.521  18.999  1.00  0.00     0.028 C 
BRANCH  17  20
HETATM   20  O9          0      27.967  17.123  20.431  1.00  0.00    -0.357 OA
HETATM   21  H9          0      28.067  16.179  20.383  1.00  0.00     0.218 HD
ENDBRANCH  17  20
BRANCH  18  22
HETATM   22  O11         0      27.783  19.917  20.160  1.00  0.00    -0.357 OA
HETATM   23  H11         0      27.757  20.436  20.956  1.00  0.00     0.218 HD
ENDBRANCH  18  22
ENDBRANCH   4  14
BRANCH   8  24
HETATM   24  O17         0      19.120  17.042  15.161  1.00  0.00    -0.359 OA
HETATM   25  H17         0      18.696  16.514  14.494  1.00  0.00     0.218 HD
ENDBRANCH   8  24
TORSDOF 5
ENDMDL
MODEL 4
REMARK VINA RESULT:      -4.2      2.071      6.864
REMARK  5 active torsions:
REMARK  status: ('A' for Active; 'I' for Inactive)
REMARK    1  A    between atoms: C4_4  and  C5_5 
REMARK    2  A    between atoms: C8_8  and  O9_9 
REMARK    3  A    between atoms: C10_11  and  O11_12 
REMARK    4  A    between atoms: C16_18  and  O17_19 
REMARK    5  A    between atoms: C19_22  and  O20_23 
ROOT
HETATM    1  O1          0      27.102  14.597  21.519  1.00  0.00    -0.286 OA
HETATM    2  C2          0      26.476  15.565  21.007  1.00  0.00     0.201 C 
HETATM    3  C3          0      25.544  15.405  19.995  1.00  0.00     0.067 C 
HETATM    4  C4          0      24.944  16.497  19.378  1.00  0.00     0.103 C 
HETATM    5  O13         0      25.263  17.712  19.788  1.00  0.00    -0.307 OA
HETATM    6  C14         0      26.168  17.921  20.718  1.00  0.00     0.107 C 
HETATM    7  C15         0      26.790  19.152  20.870  1.00  0.00     0.049 C 
HETATM    8  C16         0      27.914  19.299  21.673  1.00  0.00     0.093 C 
HETATM    9  C18         0      28.045  18.349  22.679  1.00  0.00     0.048 C 
HETATM   10  C19         0      27.399  17.125  22.582  1.00  0.00     0.096 C 
HETATM   11  C21         0      26.613  16.856  21.494  1.00  0.00     0.084 C 
ENDROOT
BRANCH  10  12
HETATM   12  O20         0      27.862  16.049  23.333  1.00  0.00    -0.359 OA
HETATM   13  H20         0      28.671  16.161  23.818  1.00  0.00     0.218 HD
ENDBRANCH  10  12
BRANCH   4  14
HETATM   14  C5          0      24.481  16.317  18.001  1.00  0.00     0.025 C 
HETATM   15  C6          0      23.389  16.996  17.480  1.00  0.00     0.004 C 
HETATM   16  C7          0      23.469  17.427  16.159  1.00  0.00     0.026 C 
HETATM   17  C8          0      24.539  17.079  15.341  1.00  0.00     0.112 C 
HETATM   18  C10         0      25.213  15.928  15.728  1.00  0.00     0.112 C 
HETATM   19  C12         0      25.188  15.567  17.069  1.00  0.00     0.028 C 
BRANCH  17  20
HETATM   20  O9          0      24.994  17.945  14.363  1.00  0.00    -0.357 OA
HETATM   21  H9          0      24.484  18.197  13.602  1.00  0.00     0.218 HD
ENDBRANCH  17  20
BRANCH  18  22
HETATM   22  O11         0      26.164  15.432  14.847  1.00  0.00    -0.357 OA
HETATM   23  H11         0      26.914  15.986  14.667  1.00  0.00     0.218 HD
ENDBRANCH  18  22
ENDBRANCH   4  14
BRANCH   8  24
HETATM   24  O17         0      28.984  20.114  21.288  1.00  0.00    -0.359 OA
HETATM   25  H17         0      28.857  21.025  21.048  1.00  0.00     0.218 HD
ENDBRANCH   8  24
TORSDOF 5
ENDMDL
MODEL 5
REMARK VINA RESULT:      -4.2      2.500      4.104
REMARK  5 active torsions:
REMARK  status: ('A' for Active; 'I' for Inactive)
REMARK    1  A    between atoms: C4_4  and  C5_5 
REMARK    2  A    between atoms: C8_8  and  O9_9 
REMARK    3  A    between atoms: C10_11  and  O11_12 
REMARK    4  A    between atoms: C16_18  and  O17_19 
REMARK    5  A    between atoms: C19_22  and  O20_23 
ROOT
HETATM    1  O1          0      25.254  17.137  14.375  1.00  0.00    -0.286 OA
HETATM    2  C2          0      25.147  16.960  15.619  1.00  0.00     0.201 C 
HETATM    3  C3          0      24.923  17.997  16.509  1.00  0.00     0.067 C 
HETATM    4  C4          0      24.912  17.788  17.883  1.00  0.00     0.103 C 
HETATM    5  O13         0      25.100  16.563  18.341  1.00  0.00    -0.307 OA
HETATM    6  C14         0      25.353  15.549  17.542  1.00  0.00     0.107 C 
HETATM    7  C15         0      25.935  14.379  18.007  1.00  0.00     0.049 C 
HETATM    8  C16         0      26.432  13.422  17.131  1.00  0.00     0.093 C 
HETATM    9  C18         0      25.859  13.432  15.865  1.00  0.00     0.048 C 
HETATM   10  C19         0      25.227  14.572  15.386  1.00  0.00     0.096 C 
HETATM   11  C21         0      25.153  15.688  16.173  1.00  0.00     0.084 C 
ENDROOT
BRANCH  10  12
HETATM   12  O20         0      25.054  14.727  14.014  1.00  0.00    -0.359 OA
HETATM   13  H20         0      25.831  14.798  13.472  1.00  0.00     0.218 HD
ENDBRANCH  10  12
BRANCH   4  14
HETATM   14  C5          0      25.273  18.922  18.736  1.00  0.00     0.025 C 
HETATM   15  C6          0      24.332  19.688  19.408  1.00  0.00     0.004 C 
HETATM   16  C7          0      24.651  20.125  20.689  1.00  0.00     0.026 C 
HETATM   17  C8          0      25.915  19.923  21.234  1.00  0.00     0.112 C 
HETATM   18  C10         0      26.927  19.740  20.301  1.00  0.00     0.112 C 
HETATM   19  C12         0      26.591  19.222  19.056  1.00  0.00     0.028 C 
BRANCH  17  20
HETATM   20  O9          0      26.076  19.714  22.593  1.00  0.00    -0.357 OA
HETATM   21  H9          0      25.405  19.904  23.239  1.00  0.00     0.218 HD
ENDBRANCH  17  20
BRANCH  18  22
HETATM   22  O11         0      28.229  19.724  20.781  1.00  0.00    -0.357 OA
HETATM   23  H11         0      28.640  18.873  20.878  1.00  0.00     0.218 HD
ENDBRANCH  18  22
ENDBRANCH   4  14
BRANCH   8  24
HETATM   24  O17         0      27.628  12.744  17.392  1.00  0.00    -0.359 OA
HETATM   25  H17         0      28.462  13.062  17.068  1.00  0.00     0.218 HD
ENDBRANCH   8  24
TORSDOF 5
ENDMDL
MODEL 6
REMARK VINA RESULT:      -4.2      1.690      3.575
REMARK  5 active torsions:
REMARK  status: ('A' for Active; 'I' for Inactive)
REMARK    1  A    between atoms: C4_4  and  C5_5 
REMARK    2  A    between atoms: C8_8  and  O9_9 
REMARK    3  A    between atoms: C10_11  and  O11_12 
REMARK    4  A    between atoms: C16_18  and  O17_19 
REMARK    5  A    between atoms: C19_22  and  O20_23 
ROOT
HETATM    1  O1          0      20.649  20.125  16.310  1.00  0.00    -0.286 OA
HETATM    2  C2          0      21.584  19.279  16.261  1.00  0.00     0.201 C 
HETATM    3  C3          0      22.596  19.223  17.204  1.00  0.00     0.067 C 
HETATM    4  C4          0      23.669  18.349  17.070  1.00  0.00     0.103 C 
HETATM    5  O13         0      23.704  17.542  16.025  1.00  0.00    -0.307 OA
HETATM    6  C14         0      22.789  17.581  15.081  1.00  0.00     0.107 C 
HETATM    7  C15         0      23.016  17.049  13.820  1.00  0.00     0.049 C 
HETATM    8  C16         0      22.158  17.313  12.759  1.00  0.00     0.093 C 
HETATM    9  C18         0      20.861  17.651  13.124  1.00  0.00     0.048 C 
HETATM   10  C19         0      20.590  18.142  14.394  1.00  0.00     0.096 C 
HETATM   11  C21         0      21.607  18.280  15.300  1.00  0.00     0.084 C 
ENDROOT
BRANCH  10  12
HETATM   12  O20         0      19.423  18.869  14.608  1.00  0.00    -0.359 OA
HETATM   13  H20         0      18.653  18.398  14.904  1.00  0.00     0.218 HD
ENDBRANCH  10  12
BRANCH   4  14
HETATM   14  C5          0      24.930  18.735  17.706  1.00  0.00     0.025 C 
HETATM   15  C6          0      25.058  19.868  18.496  1.00  0.00     0.004 C 
HETATM   16  C7          0      25.868  19.779  19.624  1.00  0.00     0.026 C 
HETATM   17  C8          0      26.633  18.647  19.885  1.00  0.00     0.112 C 
HETATM   18  C10         0      26.926  17.875  18.769  1.00  0.00     0.112 C 
HETATM   19  C12         0      26.053  17.918  17.688  1.00  0.00     0.028 C 
BRANCH  17  20
HETATM   20  O9          0      26.879  18.242  21.185  1.00  0.00    -0.357 OA
HETATM   21  H9          0      26.223  17.845  21.747  1.00  0.00     0.218 HD
ENDBRANCH  17  20
BRANCH  18  22
HETATM   22  O11         0      27.838  16.843  18.940  1.00  0.00    -0.357 OA
HETATM   23  H11         0      27.693  16.053  18.433  1.00  0.00     0.218 HD
ENDBRANCH  18  22
ENDBRANCH   4  14
BRANCH   8  24
HETATM   24  O17         0      22.645  17.552  11.469  1.00  0.00    -0.359 OA
HETATM   25  H17         0      22.546  16.914  10.772  1.00  0.00     0.218 HD
ENDBRANCH   8  24
TORSDOF 5
ENDMDL
MODEL 7
REMARK VINA RESULT:      -4.2      3.472      6.934
REMARK  5 active torsions:
REMARK  status: ('A' for Active; 'I' for Inactive)
REMARK    1  A    between atoms: C4_4  and  C5_5 
REMARK    2  A    between atoms: C8_8  and  O9_9 
REMARK    3  A    between atoms: C10_11  and  O11_12 
REMARK    4  A    between atoms: C16_18  and  O17_19 
REMARK    5  A    between atoms: C19_22  and  O20_23 
ROOT
HETATM    1  O1          0      26.795  14.425  20.082  1.00  0.00    -0.286 OA
HETATM    2  C2          0      26.240  15.025  19.121  1.00  0.00     0.201 C 
HETATM    3  C3          0      25.818  14.375  17.974  1.00  0.00     0.067 C 
HETATM    4  C4          0      25.304  15.073  16.887  1.00  0.00     0.103 C 
HETATM    5  O13         0      25.200  16.388  16.970  1.00  0.00    -0.307 OA
HETATM    6  C14         0      25.620  17.058  18.021  1.00  0.00     0.107 C 
HETATM    7  C15         0      25.886  18.418  17.962  1.00  0.00     0.049 C 
HETATM    8  C16         0      26.565  19.066  18.987  1.00  0.00     0.093 C 
HETATM    9  C18         0      26.478  18.449  20.229  1.00  0.00     0.048 C 
HETATM   10  C19         0      26.168  17.100  20.327  1.00  0.00     0.096 C 
HETATM   11  C21         0      25.929  16.374  19.192  1.00  0.00     0.084 C 
ENDROOT
BRANCH  10  12
HETATM   12  O20         0      26.505  16.406  21.485  1.00  0.00    -0.359 OA
HETATM   13  H20         0      26.359  16.836  22.320  1.00  0.00     0.218 HD
ENDBRANCH  10  12
BRANCH   4  14
HETATM   14  C5          0      25.449  14.459  15.566  1.00  0.00     0.025 C 
HETATM   15  C6          0      25.981  15.134  14.478  1.00  0.00     0.004 C 
HETATM   16  C7          0      26.800  14.417  13.612  1.00  0.00     0.026 C 
HETATM   17  C8          0      26.977  13.044  13.745  1.00  0.00     0.112 C 
HETATM   18  C10         0      25.954  12.390  14.418  1.00  0.00     0.112 C 
HETATM   19  C12         0      25.206  13.110  15.342  1.00  0.00     0.028 C 
BRANCH  17  20
HETATM   20  O9          0      28.182  12.449  13.413  1.00  0.00    -0.357 OA
HETATM   21  H9          0      28.769  12.783  12.744  1.00  0.00     0.218 HD
ENDBRANCH  17  20
BRANCH  18  22
HETATM   22  O11         0      25.986  11.003  14.415  1.00  0.00    -0.357 OA
HETATM   23  H11         0      25.217  10.556  14.080  1.00  0.00     0.218 HD
ENDBRANCH  18  22
ENDBRANCH   4  14
BRANCH   8  24
HETATM   24  O17         0      27.522  20.051  18.720  1.00  0.00    -0.359 OA
HETATM   25  H17         0      28.449  19.848  18.678  1.00  0.00     0.218 HD
ENDBRANCH   8  24
TORSDOF 5
ENDMDL
MODEL 8
REMARK VINA RESULT:      -4.1      2.332      2.855
REMARK  5 active torsions:
REMARK  status: ('A' for Active; 'I' for Inactive)
REMARK    1  A    between atoms: C4_4  and  C5_5 
REMARK    2  A    between atoms: C8_8  and  O9_9 
REMARK    3  A    between atoms: C10_11  and  O11_12 
REMARK    4  A    between atoms: C16_18  and  O17_19 
REMARK    5  A    between atoms: C19_22  and  O20_23 
ROOT
HETATM    1  O1          0      24.323  17.046  13.933  1.00  0.00    -0.286 OA
HETATM    2  C2          0      24.227  17.310  15.163  1.00  0.00     0.201 C 
HETATM    3  C3          0      25.165  16.898  16.094  1.00  0.00     0.067 C 
HETATM    4  C4          0      24.984  17.114  17.456  1.00  0.00     0.103 C 
HETATM    5  O13         0      23.895  17.747  17.858  1.00  0.00    -0.307 OA
HETATM    6  C14         0      22.956  18.125  17.020  1.00  0.00     0.107 C 
HETATM    7  C15         0      21.668  18.414  17.447  1.00  0.00     0.049 C 
HETATM    8  C16         0      20.624  18.563  16.542  1.00  0.00     0.093 C 
HETATM    9  C18         0      21.008  18.935  15.259  1.00  0.00     0.048 C 
HETATM   10  C19         0      22.303  18.703  14.815  1.00  0.00     0.096 C 
HETATM   11  C21         0      23.214  18.119  15.653  1.00  0.00     0.084 C 
ENDROOT
BRANCH  10  12
HETATM   12  O20         0      22.557  18.665  13.447  1.00  0.00    -0.359 OA
HETATM   13  H20         0      23.462  18.611  13.164  1.00  0.00     0.218 HD
ENDBRANCH  10  12
BRANCH   4  14
HETATM   14  C5          0      25.637  16.181  18.375  1.00  0.00     0.025 C 
HETATM   15  C6          0      25.257  14.852  18.493  1.00  0.00     0.004 C 
HETATM   16  C7          0      26.263  13.907  18.673  1.00  0.00     0.026 C 
HETATM   17  C8          0      27.589  14.281  18.863  1.00  0.00     0.112 C 
HETATM   18  C10         0      27.764  15.568  19.353  1.00  0.00     0.112 C 
HETATM   19  C12         0      26.782  16.516  19.086  1.00  0.00     0.028 C 
BRANCH  17  20
HETATM   20  O9          0      28.623  13.491  18.391  1.00  0.00    -0.357 OA
HETATM   21  H9          0      29.148  12.924  18.944  1.00  0.00     0.218 HD
ENDBRANCH  17  20
BRANCH  18  22
HETATM   22  O11         0      29.049  15.925  19.738  1.00  0.00    -0.357 OA
HETATM   23  H11         0      29.358  15.586  20.570  1.00  0.00     0.218 HD
ENDBRANCH  18  22
ENDBRANCH   4  14
BRANCH   8  24
HETATM   24  O17         0      19.348  18.054  16.809  1.00  0.00    -0.359 OA
HETATM   25  H17         0      18.679  18.581  17.229  1.00  0.00     0.218 HD
ENDBRANCH   8  24
TORSDOF 5
ENDMDL
MODEL 9
REMARK VINA RESULT:      -4.0      2.155      6.553
REMARK  5 active torsions:
REMARK  status: ('A' for Active; 'I' for Inactive)
REMARK    1  A    between atoms: C4_4  and  C5_5 
REMARK    2  A    between atoms: C8_8  and  O9_9 
REMARK    3  A    between atoms: C10_11  and  O11_12 
REMARK    4  A    between atoms: C16_18  and  O17_19 
REMARK    5  A    between atoms: C19_22  and  O20_23 
ROOT
HETATM    1  O1          0      23.590  17.644  22.139  1.00  0.00    -0.286 OA
HETATM    2  C2          0      24.075  18.073  21.056  1.00  0.00     0.201 C 
HETATM    3  C3          0      23.622  17.659  19.815  1.00  0.00     0.067 C 
HETATM    4  C4          0      24.241  18.068  18.639  1.00  0.00     0.103 C 
HETATM    5  O13         0      25.275  18.888  18.719  1.00  0.00    -0.307 OA
HETATM    6  C14         0      25.768  19.281  19.872  1.00  0.00     0.107 C 
HETATM    7  C15         0      27.053  19.793  19.981  1.00  0.00     0.049 C 
HETATM    8  C16         0      27.658  19.966  21.220  1.00  0.00     0.093 C 
HETATM    9  C18         0      26.780  20.117  22.287  1.00  0.00     0.048 C 
HETATM   10  C19         0      25.473  19.658  22.194  1.00  0.00     0.096 C 
HETATM   11  C21         0      25.041  19.067  21.038  1.00  0.00     0.084 C 
ENDROOT
BRANCH  10  12
HETATM   12  O20         0      24.754  19.413  23.360  1.00  0.00    -0.359 OA
HETATM   13  H20         0      25.147  18.848  24.015  1.00  0.00     0.218 HD
ENDBRANCH  10  12
BRANCH   4  14
HETATM   14  C5          0      24.134  17.179  17.481  1.00  0.00     0.025 C 
HETATM   15  C6          0      23.668  17.605  16.246  1.00  0.00     0.004 C 
HETATM   16  C7          0      24.288  17.093  15.111  1.00  0.00     0.026 C 
HETATM   17  C8          0      25.248  16.091  15.194  1.00  0.00     0.112 C 
HETATM   18  C10         0      25.180  15.317  16.344  1.00  0.00     0.112 C 
HETATM   19  C12         0      24.632  15.882  17.490  1.00  0.00     0.028 C 
BRANCH  17  20
HETATM   20  O9          0      26.296  16.037  14.292  1.00  0.00    -0.357 OA
HETATM   21  H9          0      27.066  16.592  14.344  1.00  0.00     0.218 HD
ENDBRANCH  17  20
BRANCH  18  22
HETATM   22  O11         0      25.988  14.189  16.392  1.00  0.00    -0.357 OA
HETATM   23  H11         0      26.531  14.082  17.164  1.00  0.00     0.218 HD
ENDBRANCH  18  22
ENDBRANCH   4  14
BRANCH   8  24
HETATM   24  O17         0      29.012  19.673  21.418  1.00  0.00    -0.359 OA
HETATM   25  H17         0      29.627  20.332  21.717  1.00  0.00     0.218 HD
ENDBRANCH   8  24
TORSDOF 5
ENDMDL
