MODEL 1
REMARK VINA RESULT:      -0.9      0.000      0.000
REMARK  5 active torsions:
REMARK  status: ('A' for Active; 'I' for Inactive)
REMARK    1  A    between atoms: C4_4  and  C5_5 
REMARK    2  A    between atoms: C8_8  and  O9_9 
REMARK    3  A    between atoms: C10_11  and  O11_12 
REMARK    4  A    between atoms: C16_18  and  O17_19 
REMARK    5  A    between atoms: C19_22  and  O20_23 
ROOT
HETATM    1  O1          0      51.087 111.969   4.150  1.00  0.00    -0.286 OA
HETATM    2  C2          0      50.657 112.595   5.157  1.00  0.00     0.201 C 
HETATM    3  C3          0      50.585 113.977   5.207  1.00  0.00     0.067 C 
HETATM    4  C4          0      50.204 114.645   6.365  1.00  0.00     0.103 C 
HETATM    5  O13         0      49.885 113.935   7.432  1.00  0.00    -0.307 OA
HETATM    6  C14         0      49.971 112.623   7.450  1.00  0.00     0.107 C 
HETATM    7  C15         0      50.031 111.910   8.639  1.00  0.00     0.049 C 
HETATM    8  C16         0      50.377 110.564   8.657  1.00  0.00     0.093 C 
HETATM    9  C18         0      50.132 109.879   7.472  1.00  0.00     0.048 C 
HETATM   10  C19         0      50.020 110.566   6.271  1.00  0.00     0.096 C 
HETATM   11  C21         0      50.134 111.930   6.255  1.00  0.00     0.084 C 
ENDROOT
BRANCH  10  12
HETATM   12  O20         0      50.213 109.881   5.075  1.00  0.00    -0.359 OA
HETATM   13  H20         0      50.218 108.932   5.102  1.00  0.00     0.218 HD
ENDBRANCH  10  12
BRANCH   4  14
HETATM   14  C5          0      50.711 116.006   6.550  1.00  0.00     0.025 C 
HETATM   15  C6          0      51.345 116.421   7.713  1.00  0.00     0.004 C 
HETATM   16  C7          0      52.425 117.288   7.584  1.00  0.00     0.026 C 
HETATM   17  C8          0      52.781 117.832   6.354  1.00  0.00     0.112 C 
HETATM   18  C10         0      51.755 117.874   5.420  1.00  0.00     0.112 C 
HETATM   19  C12         0      50.730 116.940   5.522  1.00  0.00     0.028 C 
BRANCH  17  20
HETATM   20  O9          0      54.105 118.100   6.054  1.00  0.00    -0.357 OA
HETATM   21  H9          0      54.455 118.977   5.950  1.00  0.00     0.218 HD
ENDBRANCH  17  20
BRANCH  18  22
HETATM   22  O11         0      52.000 118.575   4.248  1.00  0.00    -0.357 OA
HETATM   23  H11         0      52.665 119.252   4.283  1.00  0.00     0.218 HD
ENDBRANCH  18  22
ENDBRANCH   4  14
BRANCH   8  24
HETATM   24  O17         0      51.205 110.037   9.654  1.00  0.00    -0.359 OA
HETATM   25  H17         0      51.249 110.421  10.521  1.00  0.00     0.218 HD
ENDBRANCH   8  24
TORSDOF 5
ENDMDL
MODEL 2
REMARK VINA RESULT:      -0.7      2.095      2.966
REMARK  5 active torsions:
REMARK  status: ('A' for Active; 'I' for Inactive)
REMARK    1  A    between atoms: C4_4  and  C5_5 
REMARK    2  A    between atoms: C8_8  and  O9_9 
REMARK    3  A    between atoms: C10_11  and  O11_12 
REMARK    4  A    between atoms: C16_18  and  O17_19 
REMARK    5  A    between atoms: C19_22  and  O20_23 
ROOT
HETATM    1  O1          0      50.546 115.234   3.761  1.00  0.00    -0.286 OA
HETATM    2  C2          0      50.339 114.798   4.927  1.00  0.00     0.201 C 
HETATM    3  C3          0      50.273 115.624   6.036  1.00  0.00     0.067 C 
HETATM    4  C4          0      50.146 115.109   7.321  1.00  0.00     0.103 C 
HETATM    5  O13         0      50.067 113.799   7.475  1.00  0.00    -0.307 OA
HETATM    6  C14         0      50.162 112.968   6.460  1.00  0.00     0.107 C 
HETATM    7  C15         0      50.479 111.630   6.637  1.00  0.00     0.049 C 
HETATM    8  C16         0      50.827 110.821   5.562  1.00  0.00     0.093 C 
HETATM    9  C18         0      50.337 111.240   4.330  1.00  0.00     0.048 C 
HETATM   10  C19         0      49.966 112.563   4.132  1.00  0.00     0.096 C 
HETATM   11  C21         0      50.067 113.459   5.162  1.00  0.00     0.084 C 
ENDROOT
BRANCH  10  12
HETATM   12  O20         0      49.902 113.065   2.836  1.00  0.00    -0.359 OA
HETATM   13  H20         0      50.418 112.633   2.165  1.00  0.00     0.218 HD
ENDBRANCH  10  12
BRANCH   4  14
HETATM   14  C5          0      50.674 115.917   8.422  1.00  0.00     0.025 C 
HETATM   15  C6          0      51.962 115.765   8.916  1.00  0.00     0.004 C 
HETATM   16  C7          0      52.648 116.916   9.289  1.00  0.00     0.026 C 
HETATM   17  C8          0      52.031 118.163   9.299  1.00  0.00     0.112 C 
HETATM   18  C10         0      50.648 118.124   9.412  1.00  0.00     0.112 C 
HETATM   19  C12         0      49.979 116.996   8.953  1.00  0.00     0.028 C 
BRANCH  17  20
HETATM   20  O9          0      52.747 119.310   9.003  1.00  0.00    -0.357 OA
HETATM   21  H9          0      53.123 119.882   9.662  1.00  0.00     0.218 HD
ENDBRANCH  17  20
BRANCH  18  22
HETATM   22  O11         0      50.000 119.334   9.616  1.00  0.00    -0.357 OA
HETATM   23  H11         0      49.119 119.414   9.271  1.00  0.00     0.218 HD
ENDBRANCH  18  22
ENDBRANCH   4  14
BRANCH   8  24
HETATM   24  O17         0      51.853 109.875   5.662  1.00  0.00    -0.359 OA
HETATM   25  H17         0      52.671 110.071   6.103  1.00  0.00     0.218 HD
ENDBRANCH   8  24
TORSDOF 5
ENDMDL
MODEL 3
REMARK VINA RESULT:      -0.7      3.893      7.170
REMARK  5 active torsions:
REMARK  status: ('A' for Active; 'I' for Inactive)
REMARK    1  A    between atoms: C4_4  and  C5_5 
REMARK    2  A    between atoms: C8_8  and  O9_9 
REMARK    3  A    between atoms: C10_11  and  O11_12 
REMARK    4  A    between atoms: C16_18  and  O17_19 
REMARK    5  A    between atoms: C19_22  and  O20_23 
ROOT
HETATM    1  O1          0      53.638 116.227   3.301  1.00  0.00    -0.286 OA
HETATM    2  C2          0      52.934 115.315   2.786  1.00  0.00     0.201 C 
HETATM    3  C3          0      51.783 114.828   3.383  1.00  0.00     0.067 C 
HETATM    4  C4          0      51.084 113.753   2.847  1.00  0.00     0.103 C 
HETATM    5  O13         0      51.525 113.202   1.730  1.00  0.00    -0.307 OA
HETATM    6  C14         0      52.632 113.601   1.144  1.00  0.00     0.107 C 
HETATM    7  C15         0      53.306 112.801   0.232  1.00  0.00     0.049 C 
HETATM    8  C16         0      54.593 113.111  -0.188  1.00  0.00     0.093 C 
HETATM    9  C18         0      54.934 114.455  -0.089  1.00  0.00     0.048 C 
HETATM   10  C19         0      54.250 115.295   0.778  1.00  0.00     0.096 C 
HETATM   11  C21         0      53.220 114.800   1.531  1.00  0.00     0.084 C 
ENDROOT
BRANCH  10  12
HETATM   12  O20         0      54.850 116.480   1.192  1.00  0.00    -0.359 OA
HETATM   13  H20         0      55.797 116.532   1.167  1.00  0.00     0.218 HD
ENDBRANCH  10  12
BRANCH   4  14
HETATM   14  C5          0      50.299 112.935   3.775  1.00  0.00     0.025 C 
HETATM   15  C6          0      49.978 111.610   3.521  1.00  0.00     0.004 C 
HETATM   16  C7          0      49.997 110.725   4.595  1.00  0.00     0.026 C 
HETATM   17  C8          0      50.197 111.166   5.899  1.00  0.00     0.112 C 
HETATM   18  C10         0      49.876 112.499   6.116  1.00  0.00     0.112 C 
HETATM   19  C12         0      49.947 113.379   5.043  1.00  0.00     0.028 C 
BRANCH  17  20
HETATM   20  O9          0      50.861 110.375   6.820  1.00  0.00    -0.357 OA
HETATM   21  H9          0      51.679 110.623   7.236  1.00  0.00     0.218 HD
ENDBRANCH  17  20
BRANCH  18  22
HETATM   22  O11         0      49.875 112.939   7.432  1.00  0.00    -0.357 OA
HETATM   23  H11         0      49.129 112.694   7.967  1.00  0.00     0.218 HD
ENDBRANCH  18  22
ENDBRANCH   4  14
BRANCH   8  24
HETATM   24  O17         0      55.562 112.118  -0.366  1.00  0.00    -0.359 OA
HETATM   25  H17         0      55.822 111.823  -1.231  1.00  0.00     0.218 HD
ENDBRANCH   8  24
TORSDOF 5
ENDMDL
MODEL 4
REMARK VINA RESULT:      -0.6      2.422      3.690
REMARK  5 active torsions:
REMARK  status: ('A' for Active; 'I' for Inactive)
REMARK    1  A    between atoms: C4_4  and  C5_5 
REMARK    2  A    between atoms: C8_8  and  O9_9 
REMARK    3  A    between atoms: C10_11  and  O11_12 
REMARK    4  A    between atoms: C16_18  and  O17_19 
REMARK    5  A    between atoms: C19_22  and  O20_23 
ROOT
HETATM    1  O1          0      51.687 115.725   2.831  1.00  0.00    -0.286 OA
HETATM    2  C2          0      51.071 115.231   3.816  1.00  0.00     0.201 C 
HETATM    3  C3          0      50.952 115.885   5.031  1.00  0.00     0.067 C 
HETATM    4  C4          0      50.358 115.277   6.130  1.00  0.00     0.103 C 
HETATM    5  O13         0      49.880 114.052   5.997  1.00  0.00    -0.307 OA
HETATM    6  C14         0      50.000 113.373   4.877  1.00  0.00     0.107 C 
HETATM    7  C15         0      49.875 111.992   4.843  1.00  0.00     0.049 C 
HETATM    8  C16         0      50.251 111.260   3.723  1.00  0.00     0.093 C 
HETATM    9  C18         0      50.235 111.968   2.528  1.00  0.00     0.048 C 
HETATM   10  C19         0      50.311 113.354   2.527  1.00  0.00     0.096 C 
HETATM   11  C21         0      50.386 114.030   3.714  1.00  0.00     0.084 C 
ENDROOT
BRANCH  10  12
HETATM   12  O20         0      50.728 114.012   1.374  1.00  0.00    -0.359 OA
HETATM   13  H20         0      50.072 114.226   0.722  1.00  0.00     0.218 HD
ENDBRANCH  10  12
BRANCH   4  14
HETATM   14  C5          0      50.785 115.726   7.457  1.00  0.00     0.025 C 
HETATM   15  C6          0      50.774 114.899   8.570  1.00  0.00     0.004 C 
HETATM   16  C7          0      51.824 115.022   9.475  1.00  0.00     0.026 C 
HETATM   17  C8          0      52.781 116.023   9.350  1.00  0.00     0.112 C 
HETATM   18  C10         0      52.367 117.134   8.627  1.00  0.00     0.112 C 
HETATM   19  C12         0      51.375 116.966   7.668  1.00  0.00     0.028 C 
BRANCH  17  20
HETATM   20  O9          0      54.090 115.805   9.741  1.00  0.00    -0.357 OA
HETATM   21  H9          0      54.355 115.660  10.642  1.00  0.00     0.218 HD
ENDBRANCH  17  20
BRANCH  18  22
HETATM   22  O11         0      53.210 118.236   8.631  1.00  0.00    -0.357 OA
HETATM   23  H11         0      53.363 118.657   9.469  1.00  0.00     0.218 HD
ENDBRANCH  18  22
ENDBRANCH   4  14
BRANCH   8  24
HETATM   24  O17         0      50.910 110.031   3.842  1.00  0.00    -0.359 OA
HETATM   25  H17         0      50.747 109.446   4.572  1.00  0.00     0.218 HD
ENDBRANCH   8  24
TORSDOF 5
ENDMDL
MODEL 5
REMARK VINA RESULT:      -0.6      2.674      5.665
REMARK  5 active torsions:
REMARK  status: ('A' for Active; 'I' for Inactive)
REMARK    1  A    between atoms: C4_4  and  C5_5 
REMARK    2  A    between atoms: C8_8  and  O9_9 
REMARK    3  A    between atoms: C10_11  and  O11_12 
REMARK    4  A    between atoms: C16_18  and  O17_19 
REMARK    5  A    between atoms: C19_22  and  O20_23 
ROOT
HETATM    1  O1          0      51.624 115.134   4.616  1.00  0.00    -0.286 OA
HETATM    2  C2          0      51.144 114.036   5.012  1.00  0.00     0.201 C 
HETATM    3  C3          0      51.215 113.618   6.330  1.00  0.00     0.067 C 
HETATM    4  C4          0      50.770 112.360   6.720  1.00  0.00     0.103 C 
HETATM    5  O13         0      50.251 111.559   5.807  1.00  0.00    -0.307 OA
HETATM    6  C14         0      50.195 111.891   4.536  1.00  0.00     0.107 C 
HETATM    7  C15         0      50.035 110.941   3.538  1.00  0.00     0.049 C 
HETATM    8  C16         0      50.231 111.259   2.200  1.00  0.00     0.093 C 
HETATM    9  C18         0      50.060 112.602   1.885  1.00  0.00     0.048 C 
HETATM   10  C19         0      50.166 113.576   2.868  1.00  0.00     0.096 C 
HETATM   11  C21         0      50.425 113.211   4.161  1.00  0.00     0.084 C 
ENDROOT
BRANCH  10  12
HETATM   12  O20         0      50.428 114.892   2.497  1.00  0.00    -0.359 OA
HETATM   13  H20         0      50.804 115.045   1.639  1.00  0.00     0.218 HD
ENDBRANCH  10  12
BRANCH   4  14
HETATM   14  C5          0      51.393 111.768   7.906  1.00  0.00     0.025 C 
HETATM   15  C6          0      51.452 110.398   8.119  1.00  0.00     0.004 C 
HETATM   16  C7          0      52.611 109.884   8.691  1.00  0.00     0.026 C 
HETATM   17  C8          0      53.624 110.715   9.158  1.00  0.00     0.112 C 
HETATM   18  C10         0      53.216 112.003   9.479  1.00  0.00     0.112 C 
HETATM   19  C12         0      52.103 112.523   8.830  1.00  0.00     0.028 C 
BRANCH  17  20
HETATM   20  O9          0      54.949 110.323   9.093  1.00  0.00    -0.357 OA
HETATM   21  H9          0      55.477 110.116   9.856  1.00  0.00     0.218 HD
ENDBRANCH  17  20
BRANCH  18  22
HETATM   22  O11         0      54.140 112.812  10.125  1.00  0.00    -0.357 OA
HETATM   23  H11         0      54.414 113.600   9.669  1.00  0.00     0.218 HD
ENDBRANCH  18  22
ENDBRANCH   4  14
BRANCH   8  24
HETATM   24  O17         0      50.873 110.375   1.326  1.00  0.00    -0.359 OA
HETATM   25  H17         0      50.826 110.483   0.383  1.00  0.00     0.218 HD
ENDBRANCH   8  24
TORSDOF 5
ENDMDL
MODEL 6
REMARK VINA RESULT:      -0.6      1.838      2.393
REMARK  5 active torsions:
REMARK  status: ('A' for Active; 'I' for Inactive)
REMARK    1  A    between atoms: C4_4  and  C5_5 
REMARK    2  A    between atoms: C8_8  and  O9_9 
REMARK    3  A    between atoms: C10_11  and  O11_12 
REMARK    4  A    between atoms: C16_18  and  O17_19 
REMARK    5  A    between atoms: C19_22  and  O20_23 
ROOT
HETATM    1  O1          0      52.150 113.080   3.242  1.00  0.00    -0.286 OA
HETATM    2  C2          0      51.528 113.480   4.263  1.00  0.00     0.201 C 
HETATM    3  C3          0      51.470 114.813   4.632  1.00  0.00     0.067 C 
HETATM    4  C4          0      50.864 115.216   5.817  1.00  0.00     0.103 C 
HETATM    5  O13         0      50.315 114.298   6.593  1.00  0.00    -0.307 OA
HETATM    6  C14         0      50.375 113.015   6.308  1.00  0.00     0.107 C 
HETATM    7  C15         0      50.172 112.042   7.276  1.00  0.00     0.049 C 
HETATM    8  C16         0      50.484 110.709   7.035  1.00  0.00     0.093 C 
HETATM    9  C18         0      50.483 110.339   5.696  1.00  0.00     0.048 C 
HETATM   10  C19         0      50.638 111.294   4.700  1.00  0.00     0.096 C 
HETATM   11  C21         0      50.774 112.612   5.039  1.00  0.00     0.084 C 
ENDROOT
BRANCH  10  12
HETATM   12  O20         0      51.068 110.896   3.437  1.00  0.00    -0.359 OA
HETATM   13  H20         0      50.482 111.037   2.703  1.00  0.00     0.218 HD
ENDBRANCH  10  12
BRANCH   4  14
HETATM   14  C5          0      51.342 116.459   6.425  1.00  0.00     0.025 C 
HETATM   15  C6          0      51.665 117.584   5.681  1.00  0.00     0.004 C 
HETATM   16  C7          0      51.328 118.826   6.210  1.00  0.00     0.026 C 
HETATM   17  C8          0      50.809 118.954   7.494  1.00  0.00     0.112 C 
HETATM   18  C10         0      51.115 117.905   8.351  1.00  0.00     0.112 C 
HETATM   19  C12         0      51.365 116.654   7.800  1.00  0.00     0.028 C 
BRANCH  17  20
HETATM   20  O9          0      49.894 119.948   7.793  1.00  0.00    -0.357 OA
HETATM   21  H9          0      48.982 119.923   7.527  1.00  0.00     0.218 HD
ENDBRANCH  17  20
BRANCH  18  22
HETATM   22  O11         0      50.785 118.070   9.689  1.00  0.00    -0.357 OA
HETATM   23  H11         0      51.232 117.510  10.314  1.00  0.00     0.218 HD
ENDBRANCH  18  22
ENDBRANCH   4  14
BRANCH   8  24
HETATM   24  O17         0      51.075 109.909   8.019  1.00  0.00    -0.359 OA
HETATM   25  H17         0      52.009 109.739   8.029  1.00  0.00     0.218 HD
ENDBRANCH   8  24
TORSDOF 5
ENDMDL
MODEL 7
REMARK VINA RESULT:      -0.5      4.152      7.375
REMARK  5 active torsions:
REMARK  status: ('A' for Active; 'I' for Inactive)
REMARK    1  A    between atoms: C4_4  and  C5_5 
REMARK    2  A    between atoms: C8_8  and  O9_9 
REMARK    3  A    between atoms: C10_11  and  O11_12 
REMARK    4  A    between atoms: C16_18  and  O17_19 
REMARK    5  A    between atoms: C19_22  and  O20_23 
ROOT
HETATM    1  O1          0      53.567 117.061   2.281  1.00  0.00    -0.286 OA
HETATM    2  C2          0      52.600 116.280   2.066  1.00  0.00     0.201 C 
HETATM    3  C3          0      51.883 115.675   3.085  1.00  0.00     0.067 C 
HETATM    4  C4          0      50.889 114.739   2.821  1.00  0.00     0.103 C 
HETATM    5  O13         0      50.617 114.441   1.563  1.00  0.00    -0.307 OA
HETATM    6  C14         0      51.292 114.958   0.559  1.00  0.00     0.107 C 
HETATM    7  C15         0      51.295 114.372  -0.698  1.00  0.00     0.049 C 
HETATM    8  C16         0      52.201 114.767  -1.676  1.00  0.00     0.093 C 
HETATM    9  C18         0      52.693 116.058  -1.533  1.00  0.00     0.048 C 
HETATM   10  C19         0      52.663 116.692  -0.298  1.00  0.00     0.096 C 
HETATM   11  C21         0      52.128 116.046   0.784  1.00  0.00     0.084 C 
ENDROOT
BRANCH  10  12
HETATM   12  O20         0      53.521 117.761  -0.061  1.00  0.00    -0.359 OA
HETATM   13  H20         0      54.303 117.831  -0.594  1.00  0.00     0.218 HD
ENDBRANCH  10  12
BRANCH   4  14
HETATM   14  C5          0      50.617 113.741   3.856  1.00  0.00     0.025 C 
HETATM   15  C6          0      51.138 112.456   3.818  1.00  0.00     0.004 C 
HETATM   16  C7          0      51.542 111.888   5.022  1.00  0.00     0.026 C 
HETATM   17  C8          0      51.313 112.520   6.240  1.00  0.00     0.112 C 
HETATM   18  C10         0      50.269 113.435   6.231  1.00  0.00     0.112 C 
HETATM   19  C12         0      49.941 114.052   5.030  1.00  0.00     0.028 C 
BRANCH  17  20
HETATM   20  O9          0      52.206 112.383   7.288  1.00  0.00    -0.357 OA
HETATM   21  H9          0      52.059 111.815   8.035  1.00  0.00     0.218 HD
ENDBRANCH  17  20
BRANCH  18  22
HETATM   22  O11         0      49.876 113.952   7.457  1.00  0.00    -0.357 OA
HETATM   23  H11         0      49.720 113.328   8.157  1.00  0.00     0.218 HD
ENDBRANCH  18  22
ENDBRANCH   4  14
BRANCH   8  24
HETATM   24  O17         0      52.814 113.835  -2.521  1.00  0.00    -0.359 OA
HETATM   25  H17         0      53.680 113.491  -2.340  1.00  0.00     0.218 HD
ENDBRANCH   8  24
TORSDOF 5
ENDMDL
MODEL 8
REMARK VINA RESULT:      -0.5      1.963      6.962
REMARK  5 active torsions:
REMARK  status: ('A' for Active; 'I' for Inactive)
REMARK    1  A    between atoms: C4_4  and  C5_5 
REMARK    2  A    between atoms: C8_8  and  O9_9 
REMARK    3  A    between atoms: C10_11  and  O11_12 
REMARK    4  A    between atoms: C16_18  and  O17_19 
REMARK    5  A    between atoms: C19_22  and  O20_23 
ROOT
HETATM    1  O1          0      55.065 115.155   8.804  1.00  0.00    -0.286 OA
HETATM    2  C2          0      53.979 115.550   8.299  1.00  0.00     0.201 C 
HETATM    3  C3          0      52.794 114.844   8.420  1.00  0.00     0.067 C 
HETATM    4  C4          0      51.635 115.248   7.768  1.00  0.00     0.103 C 
HETATM    5  O13         0      51.670 116.346   7.033  1.00  0.00    -0.307 OA
HETATM    6  C14         0      52.777 117.032   6.854  1.00  0.00     0.107 C 
HETATM    7  C15         0      52.924 117.921   5.799  1.00  0.00     0.049 C 
HETATM    8  C16         0      54.166 118.447   5.466  1.00  0.00     0.093 C 
HETATM    9  C18         0      55.089 118.475   6.504  1.00  0.00     0.048 C 
HETATM   10  C19         0      54.947 117.632   7.598  1.00  0.00     0.096 C 
HETATM   11  C21         0      53.880 116.778   7.662  1.00  0.00     0.084 C 
ENDROOT
BRANCH  10  12
HETATM   12  O20         0      56.057 117.351   8.389  1.00  0.00    -0.359 OA
HETATM   13  H20         0      55.973 116.672   9.047  1.00  0.00     0.218 HD
ENDBRANCH  10  12
BRANCH   4  14
HETATM   14  C5          0      50.655 114.211   7.440  1.00  0.00     0.025 C 
HETATM   15  C6          0      50.176 114.009   6.153  1.00  0.00     0.004 C 
HETATM   16  C7          0      49.963 112.697   5.744  1.00  0.00     0.026 C 
HETATM   17  C8          0      50.092 111.628   6.623  1.00  0.00     0.112 C 
HETATM   18  C10         0      49.944 111.959   7.964  1.00  0.00     0.112 C 
HETATM   19  C12         0      50.245 113.256   8.361  1.00  0.00     0.028 C 
BRANCH  17  20
HETATM   20  O9          0      50.543 110.397   6.182  1.00  0.00    -0.357 OA
HETATM   21  H9          0      51.460 110.192   6.035  1.00  0.00     0.218 HD
ENDBRANCH  17  20
BRANCH  18  22
HETATM   22  O11         0      49.875 110.907   8.867  1.00  0.00    -0.357 OA
HETATM   23  H11         0      49.111 110.344   8.814  1.00  0.00     0.218 HD
ENDBRANCH  18  22
ENDBRANCH   4  14
BRANCH   8  24
HETATM   24  O17         0      54.555 118.611   4.131  1.00  0.00    -0.359 OA
HETATM   25  H17         0      53.917 118.695   3.433  1.00  0.00     0.218 HD
ENDBRANCH   8  24
TORSDOF 5
ENDMDL
MODEL 9
REMARK VINA RESULT:      -0.5      2.868      6.716
REMARK  5 active torsions:
REMARK  status: ('A' for Active; 'I' for Inactive)
REMARK    1  A    between atoms: C4_4  and  C5_5 
REMARK    2  A    between atoms: C8_8  and  O9_9 
REMARK    3  A    between atoms: C10_11  and  O11_12 
REMARK    4  A    between atoms: C16_18  and  O17_19 
REMARK    5  A    between atoms: C19_22  and  O20_23 
ROOT
HETATM    1  O1          0      54.441 116.864   5.163  1.00  0.00    -0.286 OA
HETATM    2  C2          0      53.300 116.512   4.755  1.00  0.00     0.201 C 
HETATM    3  C3          0      52.307 116.053   5.604  1.00  0.00     0.067 C 
HETATM    4  C4          0      51.096 115.575   5.117  1.00  0.00     0.103 C 
HETATM    5  O13         0      50.889 115.582   3.812  1.00  0.00    -0.307 OA
HETATM    6  C14         0      51.812 115.972   2.960  1.00  0.00     0.107 C 
HETATM    7  C15         0      51.766 115.617   1.620  1.00  0.00     0.049 C 
HETATM    8  C16         0      52.860 115.810   0.784  1.00  0.00     0.093 C 
HETATM    9  C18         0      53.736 116.810   1.187  1.00  0.00     0.048 C 
HETATM   10  C19         0      53.775 117.223   2.511  1.00  0.00     0.096 C 
HETATM   11  C21         0      52.932 116.653   3.425  1.00  0.00     0.084 C 
ENDROOT
BRANCH  10  12
HETATM   12  O20         0      54.908 117.876   2.988  1.00  0.00    -0.359 OA
HETATM   13  H20         0      55.140 117.756   3.900  1.00  0.00     0.218 HD
ENDBRANCH  10  12
BRANCH   4  14
HETATM   14  C5          0      50.385 114.594   5.938  1.00  0.00     0.025 C 
HETATM   15  C6          0      49.876 113.410   5.423  1.00  0.00     0.004 C 
HETATM   16  C7          0      49.968 112.270   6.216  1.00  0.00     0.026 C 
HETATM   17  C8          0      50.427 112.329   7.527  1.00  0.00     0.112 C 
HETATM   18  C10         0      50.302 113.573   8.130  1.00  0.00     0.112 C 
HETATM   19  C12         0      50.298 114.702   7.320  1.00  0.00     0.028 C 
BRANCH  17  20
HETATM   20  O9          0      51.137 111.276   8.077  1.00  0.00    -0.357 OA
HETATM   21  H9          0      50.756 110.430   8.278  1.00  0.00     0.218 HD
ENDBRANCH  17  20
BRANCH  18  22
HETATM   22  O11         0      50.567 113.642   9.491  1.00  0.00    -0.357 OA
HETATM   23  H11         0      49.819 113.620  10.076  1.00  0.00     0.218 HD
ENDBRANCH  18  22
ENDBRANCH   4  14
BRANCH   8  24
HETATM   24  O17         0      53.220 114.859  -0.178  1.00  0.00    -0.359 OA
HETATM   25  H17         0      53.950 115.000  -0.769  1.00  0.00     0.218 HD
ENDBRANCH   8  24
TORSDOF 5
ENDMDL
