MODEL 1
REMARK VINA RESULT:      -2.3      0.000      0.000
REMARK  5 active torsions:
REMARK  status: ('A' for Active; 'I' for Inactive)
REMARK    1  A    between atoms: C4_4  and  C5_5 
REMARK    2  A    between atoms: C8_8  and  O9_9 
REMARK    3  A    between atoms: C10_11  and  O11_12 
REMARK    4  A    between atoms: C16_18  and  O17_19 
REMARK    5  A    between atoms: C19_22  and  O20_23 
ROOT
HETATM    1  O1          0      37.382   9.450  16.484  1.00  0.00    -0.286 OA
HETATM    2  C2          0      36.409   9.450  17.286  1.00  0.00     0.201 C 
HETATM    3  C3          0      36.568   9.381  18.660  1.00  0.00     0.067 C 
HETATM    4  C4          0      35.477   9.279  19.515  1.00  0.00     0.103 C 
HETATM    5  O13         0      34.262   9.269  18.996  1.00  0.00    -0.307 OA
HETATM    6  C14         0      34.056   9.294  17.698  1.00  0.00     0.107 C 
HETATM    7  C15         0      32.852   8.888  17.140  1.00  0.00     0.049 C 
HETATM    8  C16         0      32.726   8.674  15.773  1.00  0.00     0.093 C 
HETATM    9  C18         0      33.633   9.371  14.984  1.00  0.00     0.048 C 
HETATM   10  C19         0      34.827   9.833  15.521  1.00  0.00     0.096 C 
HETATM   11  C21         0      35.105   9.615  16.843  1.00  0.00     0.084 C 
ENDROOT
BRANCH  10  12
HETATM   12  O20         0      35.888  10.125  14.670  1.00  0.00    -0.359 OA
HETATM   13  H20         0      35.736  10.073  13.735  1.00  0.00     0.218 HD
ENDBRANCH  10  12
BRANCH   4  14
HETATM   14  C5          0      35.697   8.625  20.807  1.00  0.00     0.025 C 
HETATM   15  C6          0      36.193   7.335  20.921  1.00  0.00     0.004 C 
HETATM   16  C7          0      37.085   7.076  21.957  1.00  0.00     0.026 C 
HETATM   17  C8          0      37.371   8.030  22.928  1.00  0.00     0.112 C 
HETATM   18  C10         0      36.391   9.000  23.094  1.00  0.00     0.112 C 
HETATM   19  C12         0      35.569   9.299  22.014  1.00  0.00     0.028 C 
BRANCH  17  20
HETATM   20  O9          0      38.625   8.098  23.507  1.00  0.00    -0.357 OA
HETATM   21  H9          0      39.278   8.750  23.278  1.00  0.00     0.218 HD
ENDBRANCH  17  20
BRANCH  18  22
HETATM   22  O11         0      36.536   9.861  24.172  1.00  0.00    -0.357 OA
HETATM   23  H11         0      36.995  10.678  24.012  1.00  0.00     0.218 HD
ENDBRANCH  18  22
ENDBRANCH   4  14
BRANCH   8  24
HETATM   24  O17         0      31.985   7.600  15.268  1.00  0.00    -0.359 OA
HETATM   25  H17         0      32.284   6.703  15.353  1.00  0.00     0.218 HD
ENDBRANCH   8  24
TORSDOF 5
ENDMDL
MODEL 2
REMARK VINA RESULT:      -2.2      2.434      6.973
REMARK  5 active torsions:
REMARK  status: ('A' for Active; 'I' for Inactive)
REMARK    1  A    between atoms: C4_4  and  C5_5 
REMARK    2  A    between atoms: C8_8  and  O9_9 
REMARK    3  A    between atoms: C10_11  and  O11_12 
REMARK    4  A    between atoms: C16_18  and  O17_19 
REMARK    5  A    between atoms: C19_22  and  O20_23 
ROOT
HETATM    1  O1          0      33.948   8.857  19.230  1.00  0.00    -0.286 OA
HETATM    2  C2          0      34.935   9.269  18.561  1.00  0.00     0.201 C 
HETATM    3  C3          0      34.978   9.221  17.178  1.00  0.00     0.067 C 
HETATM    4  C4          0      36.118   9.586  16.471  1.00  0.00     0.103 C 
HETATM    5  O13         0      37.174  10.008  17.143  1.00  0.00    -0.307 OA
HETATM    6  C14         0      37.200  10.038  18.458  1.00  0.00     0.107 C 
HETATM    7  C15         0      38.393  10.087  19.165  1.00  0.00     0.049 C 
HETATM    8  C16         0      38.429   9.862  20.535  1.00  0.00     0.093 C 
HETATM    9  C18         0      37.238  10.120  21.204  1.00  0.00     0.048 C 
HETATM   10  C19         0      36.031  10.125  20.519  1.00  0.00     0.096 C 
HETATM   11  C21         0      36.015   9.891  19.171  1.00  0.00     0.084 C 
ENDROOT
BRANCH  10  12
HETATM   12  O20         0      34.846   9.946  21.226  1.00  0.00    -0.359 OA
HETATM   13  H20         0      34.258  10.688  21.305  1.00  0.00     0.218 HD
ENDBRANCH  10  12
BRANCH   4  14
HETATM   14  C5          0      36.318   8.969  15.158  1.00  0.00     0.025 C 
HETATM   15  C6          0      37.507   8.358  14.788  1.00  0.00     0.004 C 
HETATM   16  C7          0      37.425   7.199  14.022  1.00  0.00     0.026 C 
HETATM   17  C8          0      36.211   6.737  13.527  1.00  0.00     0.112 C 
HETATM   18  C10         0      35.226   7.708  13.405  1.00  0.00     0.112 C 
HETATM   19  C12         0      35.285   8.816  14.242  1.00  0.00     0.028 C 
BRANCH  17  20
HETATM   20  O9          0      35.975   5.381  13.382  1.00  0.00    -0.357 OA
HETATM   21  H9          0      35.832   4.789  14.111  1.00  0.00     0.218 HD
ENDBRANCH  17  20
BRANCH  18  22
HETATM   22  O11         0      34.063   7.345  12.743  1.00  0.00    -0.357 OA
HETATM   23  H11         0      33.658   8.004  12.191  1.00  0.00     0.218 HD
ENDBRANCH  18  22
ENDBRANCH   4  14
BRANCH   8  24
HETATM   24  O17         0      39.459   9.123  21.126  1.00  0.00    -0.359 OA
HETATM   25  H17         0      39.382   8.187  21.272  1.00  0.00     0.218 HD
ENDBRANCH   8  24
TORSDOF 5
ENDMDL
MODEL 3
REMARK VINA RESULT:      -2.2      2.717      4.268
REMARK  5 active torsions:
REMARK  status: ('A' for Active; 'I' for Inactive)
REMARK    1  A    between atoms: C4_4  and  C5_5 
REMARK    2  A    between atoms: C8_8  and  O9_9 
REMARK    3  A    between atoms: C10_11  and  O11_12 
REMARK    4  A    between atoms: C16_18  and  O17_19 
REMARK    5  A    between atoms: C19_22  and  O20_23 
ROOT
HETATM    1  O1          0      29.593   9.054  21.335  1.00  0.00    -0.286 OA
HETATM    2  C2          0      30.771   8.818  20.952  1.00  0.00     0.201 C 
HETATM    3  C3          0      31.850   8.784  21.819  1.00  0.00     0.067 C 
HETATM    4  C4          0      33.151   8.625  21.357  1.00  0.00     0.103 C 
HETATM    5  O13         0      33.351   8.482  20.059  1.00  0.00    -0.307 OA
HETATM    6  C14         0      32.367   8.544  19.189  1.00  0.00     0.107 C 
HETATM    7  C15         0      32.595   8.797  17.844  1.00  0.00     0.049 C 
HETATM    8  C16         0      31.551   9.113  16.982  1.00  0.00     0.093 C 
HETATM    9  C18         0      30.302   8.652  17.379  1.00  0.00     0.048 C 
HETATM   10  C19         0      30.053   8.345  18.710  1.00  0.00     0.096 C 
HETATM   11  C21         0      31.051   8.482  19.636  1.00  0.00     0.084 C 
ENDROOT
BRANCH  10  12
HETATM   12  O20         0      28.740   8.313  19.167  1.00  0.00    -0.359 OA
HETATM   13  H20         0      28.402   9.085  19.606  1.00  0.00     0.218 HD
ENDBRANCH  10  12
BRANCH   4  14
HETATM   14  C5          0      34.227   9.183  22.179  1.00  0.00     0.025 C 
HETATM   15  C6          0      34.322   8.962  23.545  1.00  0.00     0.004 C 
HETATM   16  C7          0      35.592   8.777  24.082  1.00  0.00     0.026 C 
HETATM   17  C8          0      36.739   8.939  23.313  1.00  0.00     0.112 C 
HETATM   18  C10         0      36.579   9.750  22.196  1.00  0.00     0.112 C 
HETATM   19  C12         0      35.314   9.849  21.629  1.00  0.00     0.028 C 
BRANCH  17  20
HETATM   20  O9          0      37.866   8.173  23.550  1.00  0.00    -0.357 OA
HETATM   21  H9          0      38.620   8.149  22.972  1.00  0.00     0.218 HD
ENDBRANCH  17  20
BRANCH  18  22
HETATM   22  O11         0      37.729  10.098  21.503  1.00  0.00    -0.357 OA
HETATM   23  H11         0      37.987   9.530  20.786  1.00  0.00     0.218 HD
ENDBRANCH  18  22
ENDBRANCH   4  14
BRANCH   8  24
HETATM   24  O17         0      31.694  10.092  15.993  1.00  0.00    -0.359 OA
HETATM   25  H17         0      31.430   9.935  15.094  1.00  0.00     0.218 HD
ENDBRANCH   8  24
TORSDOF 5
ENDMDL
MODEL 4
REMARK VINA RESULT:      -2.2      2.807      5.932
REMARK  5 active torsions:
REMARK  status: ('A' for Active; 'I' for Inactive)
REMARK    1  A    between atoms: C4_4  and  C5_5 
REMARK    2  A    between atoms: C8_8  and  O9_9 
REMARK    3  A    between atoms: C10_11  and  O11_12 
REMARK    4  A    between atoms: C16_18  and  O17_19 
REMARK    5  A    between atoms: C19_22  and  O20_23 
ROOT
HETATM    1  O1          0      35.036   9.551  20.054  1.00  0.00    -0.286 OA
HETATM    2  C2          0      35.058   9.264  18.826  1.00  0.00     0.201 C 
HETATM    3  C3          0      36.207   9.337  18.058  1.00  0.00     0.067 C 
HETATM    4  C4          0      36.183   9.115  16.686  1.00  0.00     0.103 C 
HETATM    5  O13         0      35.032   8.807  16.114  1.00  0.00    -0.307 OA
HETATM    6  C14         0      33.905   8.761  16.790  1.00  0.00     0.107 C 
HETATM    7  C15         0      32.671   8.838  16.160  1.00  0.00     0.049 C 
HETATM    8  C16         0      31.503   9.046  16.884  1.00  0.00     0.093 C 
HETATM    9  C18         0      31.558   8.644  18.213  1.00  0.00     0.048 C 
HETATM   10  C19         0      32.778   8.511  18.861  1.00  0.00     0.096 C 
HETATM   11  C21         0      33.939   8.761  18.180  1.00  0.00     0.084 C 
ENDROOT
BRANCH  10  12
HETATM   12  O20         0      32.818   8.543  20.251  1.00  0.00    -0.359 OA
HETATM   13  H20         0      32.595   9.358  20.684  1.00  0.00     0.218 HD
ENDBRANCH  10  12
BRANCH   4  14
HETATM   14  C5          0      37.217   9.770  15.883  1.00  0.00     0.025 C 
HETATM   15  C6          0      38.517   9.949  16.332  1.00  0.00     0.004 C 
HETATM   16  C7          0      39.545   9.793  15.408  1.00  0.00     0.026 C 
HETATM   17  C8          0      39.287   9.599  14.055  1.00  0.00     0.112 C 
HETATM   18  C10         0      38.048  10.060  13.629  1.00  0.00     0.112 C 
HETATM   19  C12         0      37.014  10.125  14.555  1.00  0.00     0.028 C 
BRANCH  17  20
HETATM   20  O9          0      40.125   8.818  13.278  1.00  0.00    -0.357 OA
HETATM   21  H9          0      39.821   8.112  12.720  1.00  0.00     0.218 HD
ENDBRANCH  17  20
BRANCH  18  22
HETATM   22  O11         0      37.816  10.064  12.261  1.00  0.00    -0.357 OA
HETATM   23  H11         0      37.259   9.374  11.918  1.00  0.00     0.218 HD
ENDBRANCH  18  22
ENDBRANCH   4  14
BRANCH   8  24
HETATM   24  O17         0      30.492   9.889  16.411  1.00  0.00    -0.359 OA
HETATM   25  H17         0      30.475  10.191  15.510  1.00  0.00     0.218 HD
ENDBRANCH   8  24
TORSDOF 5
ENDMDL
MODEL 5
REMARK VINA RESULT:      -2.1      2.696      7.393
REMARK  5 active torsions:
REMARK  status: ('A' for Active; 'I' for Inactive)
REMARK    1  A    between atoms: C4_4  and  C5_5 
REMARK    2  A    between atoms: C8_8  and  O9_9 
REMARK    3  A    between atoms: C10_11  and  O11_12 
REMARK    4  A    between atoms: C16_18  and  O17_19 
REMARK    5  A    between atoms: C19_22  and  O20_23 
ROOT
HETATM    1  O1          0      33.600   8.967  19.019  1.00  0.00    -0.286 OA
HETATM    2  C2          0      34.034   9.383  17.910  1.00  0.00     0.201 C 
HETATM    3  C3          0      33.263   9.394  16.759  1.00  0.00     0.067 C 
HETATM    4  C4          0      33.797   9.760  15.529  1.00  0.00     0.103 C 
HETATM    5  O13         0      35.065  10.125  15.470  1.00  0.00    -0.307 OA
HETATM    6  C14         0      35.850  10.097  16.525  1.00  0.00     0.107 C 
HETATM    7  C15         0      37.233  10.085  16.407  1.00  0.00     0.049 C 
HETATM    8  C16         0      38.047   9.800  17.496  1.00  0.00     0.093 C 
HETATM    9  C18         0      37.479  10.059  18.738  1.00  0.00     0.048 C 
HETATM   10  C19         0      36.100  10.124  18.882  1.00  0.00     0.096 C 
HETATM   11  C21         0      35.294   9.950  17.791  1.00  0.00     0.084 C 
ENDROOT
BRANCH  10  12
HETATM   12  O20         0      35.539   9.945  20.143  1.00  0.00    -0.359 OA
HETATM   13  H20         0      35.682   9.115  20.580  1.00  0.00     0.218 HD
ENDBRANCH  10  12
BRANCH   4  14
HETATM   14  C5          0      33.169   9.196  14.332  1.00  0.00     0.025 C 
HETATM   15  C6          0      33.680   8.092  13.665  1.00  0.00     0.004 C 
HETATM   16  C7          0      32.772   7.172  13.151  1.00  0.00     0.026 C 
HETATM   17  C8          0      31.401   7.407  13.180  1.00  0.00     0.112 C 
HETATM   18  C10         0      31.044   8.745  13.269  1.00  0.00     0.112 C 
HETATM   19  C12         0      31.936   9.629  13.864  1.00  0.00     0.028 C 
BRANCH  17  20
HETATM   20  O9          0      30.507   6.361  13.323  1.00  0.00    -0.357 OA
HETATM   21  H9          0      29.897   6.091  12.646  1.00  0.00     0.218 HD
ENDBRANCH  17  20
BRANCH  18  22
HETATM   22  O11         0      29.699   9.048  13.111  1.00  0.00    -0.357 OA
HETATM   23  H11         0      29.100   8.694  13.759  1.00  0.00     0.218 HD
ENDBRANCH  18  22
ENDBRANCH   4  14
BRANCH   8  24
HETATM   24  O17         0      39.194   9.009  17.362  1.00  0.00    -0.359 OA
HETATM   25  H17         0      40.066   9.384  17.398  1.00  0.00     0.218 HD
ENDBRANCH   8  24
TORSDOF 5
ENDMDL
MODEL 6
REMARK VINA RESULT:      -2.0      1.726      2.179
REMARK  5 active torsions:
REMARK  status: ('A' for Active; 'I' for Inactive)
REMARK    1  A    between atoms: C4_4  and  C5_5 
REMARK    2  A    between atoms: C8_8  and  O9_9 
REMARK    3  A    between atoms: C10_11  and  O11_12 
REMARK    4  A    between atoms: C16_18  and  O17_19 
REMARK    5  A    between atoms: C19_22  and  O20_23 
ROOT
HETATM    1  O1          0      36.561   6.353  18.114  1.00  0.00    -0.286 OA
HETATM    2  C2          0      36.173   7.507  18.443  1.00  0.00     0.201 C 
HETATM    3  C3          0      36.228   7.974  19.745  1.00  0.00     0.067 C 
HETATM    4  C4          0      35.700   9.211  20.098  1.00  0.00     0.103 C 
HETATM    5  O13         0      35.153   9.960  19.157  1.00  0.00    -0.307 OA
HETATM    6  C14         0      35.042   9.548  17.913  1.00  0.00     0.107 C 
HETATM    7  C15         0      34.140  10.125  17.030  1.00  0.00     0.049 C 
HETATM    8  C16         0      33.844   9.530  15.809  1.00  0.00     0.093 C 
HETATM    9  C18         0      34.834   8.691  15.310  1.00  0.00     0.048 C 
HETATM   10  C19         0      35.781   8.134  16.159  1.00  0.00     0.096 C 
HETATM   11  C21         0      35.750   8.426  17.496  1.00  0.00     0.084 C 
ENDROOT
BRANCH  10  12
HETATM   12  O20         0      36.468   6.993  15.757  1.00  0.00    -0.359 OA
HETATM   13  H20         0      37.324   7.105  15.362  1.00  0.00     0.218 HD
ENDBRANCH  10  12
BRANCH   4  14
HETATM   14  C5          0      35.249   9.376  21.481  1.00  0.00     0.025 C 
HETATM   15  C6          0      34.000   8.961  21.920  1.00  0.00     0.004 C 
HETATM   16  C7          0      33.917   8.402  23.192  1.00  0.00     0.026 C 
HETATM   17  C8          0      35.010   8.380  24.052  1.00  0.00     0.112 C 
HETATM   18  C10         0      35.973   9.344  23.790  1.00  0.00     0.112 C 
HETATM   19  C12         0      36.092   9.824  22.491  1.00  0.00     0.028 C 
BRANCH  17  20
HETATM   20  O9          0      35.189   7.337  24.943  1.00  0.00    -0.357 OA
HETATM   21  H9          0      34.610   6.586  25.000  1.00  0.00     0.218 HD
ENDBRANCH  17  20
BRANCH  18  22
HETATM   22  O11         0      36.988   9.490  24.726  1.00  0.00    -0.357 OA
HETATM   23  H11         0      36.746   9.857  25.568  1.00  0.00     0.218 HD
ENDBRANCH  18  22
ENDBRANCH   4  14
BRANCH   8  24
HETATM   24  O17         0      32.539   9.510  15.305  1.00  0.00    -0.359 OA
HETATM   25  H17         0      31.811   9.879  15.790  1.00  0.00     0.218 HD
ENDBRANCH   8  24
TORSDOF 5
ENDMDL
MODEL 7
REMARK VINA RESULT:      -2.0      1.907      3.266
REMARK  5 active torsions:
REMARK  status: ('A' for Active; 'I' for Inactive)
REMARK    1  A    between atoms: C4_4  and  C5_5 
REMARK    2  A    between atoms: C8_8  and  O9_9 
REMARK    3  A    between atoms: C10_11  and  O11_12 
REMARK    4  A    between atoms: C16_18  and  O17_19 
REMARK    5  A    between atoms: C19_22  and  O20_23 
ROOT
HETATM    1  O1          0      33.465   8.234  14.549  1.00  0.00    -0.286 OA
HETATM    2  C2          0      33.371   8.591  15.756  1.00  0.00     0.201 C 
HETATM    3  C3          0      34.469   8.949  16.519  1.00  0.00     0.067 C 
HETATM    4  C4          0      34.351   9.240  17.874  1.00  0.00     0.103 C 
HETATM    5  O13         0      33.154   9.189  18.432  1.00  0.00    -0.307 OA
HETATM    6  C14         0      32.086   8.819  17.761  1.00  0.00     0.107 C 
HETATM    7  C15         0      30.935   8.381  18.402  1.00  0.00     0.049 C 
HETATM    8  C16         0      29.912   7.756  17.701  1.00  0.00     0.093 C 
HETATM    9  C18         0      29.852   8.066  16.348  1.00  0.00     0.048 C 
HETATM   10  C19         0      30.972   8.550  15.685  1.00  0.00     0.096 C 
HETATM   11  C21         0      32.139   8.740  16.374  1.00  0.00     0.084 C 
ENDROOT
BRANCH  10  12
HETATM   12  O20         0      31.042   8.443  14.300  1.00  0.00    -0.359 OA
HETATM   13  H20         0      31.902   8.408  13.899  1.00  0.00     0.218 HD
ENDBRANCH  10  12
BRANCH   4  14
HETATM   14  C5          0      35.530   9.014  18.713  1.00  0.00     0.025 C 
HETATM   15  C6          0      36.637   9.849  18.693  1.00  0.00     0.004 C 
HETATM   16  C7          0      37.271  10.108  19.904  1.00  0.00     0.026 C 
HETATM   17  C8          0      36.900   9.456  21.075  1.00  0.00     0.112 C 
HETATM   18  C10         0      36.264   8.237  20.883  1.00  0.00     0.112 C 
HETATM   19  C12         0      35.566   8.036  19.698  1.00  0.00     0.028 C 
BRANCH  17  20
HETATM   20  O9          0      36.983  10.095  22.300  1.00  0.00    -0.357 OA
HETATM   21  H9          0      36.610   9.749  23.102  1.00  0.00     0.218 HD
ENDBRANCH  17  20
BRANCH  18  22
HETATM   22  O11         0      36.043   7.458  22.011  1.00  0.00    -0.357 OA
HETATM   23  H11         0      35.603   6.626  21.879  1.00  0.00     0.218 HD
ENDBRANCH  18  22
ENDBRANCH   4  14
BRANCH   8  24
HETATM   24  O17         0      29.226   6.659  18.235  1.00  0.00    -0.359 OA
HETATM   25  H17         0      28.580   6.762  18.924  1.00  0.00     0.218 HD
ENDBRANCH   8  24
TORSDOF 5
ENDMDL
MODEL 8
REMARK VINA RESULT:      -2.0      1.762      6.714
REMARK  5 active torsions:
REMARK  status: ('A' for Active; 'I' for Inactive)
REMARK    1  A    between atoms: C4_4  and  C5_5 
REMARK    2  A    between atoms: C8_8  and  O9_9 
REMARK    3  A    between atoms: C10_11  and  O11_12 
REMARK    4  A    between atoms: C16_18  and  O17_19 
REMARK    5  A    between atoms: C19_22  and  O20_23 
ROOT
HETATM    1  O1          0      33.477   6.824  20.000  1.00  0.00    -0.286 OA
HETATM    2  C2          0      34.131   7.893  19.856  1.00  0.00     0.201 C 
HETATM    3  C3          0      34.295   8.513  18.629  1.00  0.00     0.067 C 
HETATM    4  C4          0      35.105   9.633  18.481  1.00  0.00     0.103 C 
HETATM    5  O13         0      35.713  10.122  19.548  1.00  0.00    -0.307 OA
HETATM    6  C14         0      35.621   9.550  20.729  1.00  0.00     0.107 C 
HETATM    7  C15         0      36.542   9.800  21.736  1.00  0.00     0.049 C 
HETATM    8  C16         0      36.592   9.013  22.880  1.00  0.00     0.093 C 
HETATM    9  C18         0      35.405   8.363  23.198  1.00  0.00     0.048 C 
HETATM   10  C19         0      34.441   8.138  22.224  1.00  0.00     0.096 C 
HETATM   11  C21         0      34.654   8.574  20.944  1.00  0.00     0.084 C 
ENDROOT
BRANCH  10  12
HETATM   12  O20         0      33.492   7.140  22.424  1.00  0.00    -0.359 OA
HETATM   13  H20         0      33.205   6.971  23.313  1.00  0.00     0.218 HD
ENDBRANCH  10  12
BRANCH   4  14
HETATM   14  C5          0      35.704   9.857  17.164  1.00  0.00     0.025 C 
HETATM   15  C6          0      37.075   9.918  16.962  1.00  0.00     0.004 C 
HETATM   16  C7          0      37.581   9.343  15.800  1.00  0.00     0.026 C 
HETATM   17  C8          0      36.744   8.844  14.809  1.00  0.00     0.112 C 
HETATM   18  C10         0      35.465   9.386  14.803  1.00  0.00     0.112 C 
HETATM   19  C12         0      34.950   9.876  15.998  1.00  0.00     0.028 C 
BRANCH  17  20
HETATM   20  O9          0      37.118   7.751  14.049  1.00  0.00    -0.357 OA
HETATM   21  H9          0      38.020   7.483  13.917  1.00  0.00     0.218 HD
ENDBRANCH  17  20
BRANCH  18  22
HETATM   22  O11         0      34.652   9.066  13.725  1.00  0.00    -0.357 OA
HETATM   23  H11         0      33.779   8.747  13.925  1.00  0.00     0.218 HD
ENDBRANCH  18  22
ENDBRANCH   4  14
BRANCH   8  24
HETATM   24  O17         0      37.811   8.641  23.456  1.00  0.00    -0.359 OA
HETATM   25  H17         0      38.041   8.892  24.343  1.00  0.00     0.218 HD
ENDBRANCH   8  24
TORSDOF 5
ENDMDL
MODEL 9
REMARK VINA RESULT:      -2.0      2.548      6.208
REMARK  5 active torsions:
REMARK  status: ('A' for Active; 'I' for Inactive)
REMARK    1  A    between atoms: C4_4  and  C5_5 
REMARK    2  A    between atoms: C8_8  and  O9_9 
REMARK    3  A    between atoms: C10_11  and  O11_12 
REMARK    4  A    between atoms: C16_18  and  O17_19 
REMARK    5  A    between atoms: C19_22  and  O20_23 
ROOT
HETATM    1  O1          0      36.063  10.125  17.183  1.00  0.00    -0.286 OA
HETATM    2  C2          0      35.340   9.468  17.982  1.00  0.00     0.201 C 
HETATM    3  C3          0      34.044   9.087  17.680  1.00  0.00     0.067 C 
HETATM    4  C4          0      33.234   8.454  18.616  1.00  0.00     0.103 C 
HETATM    5  O13         0      33.729   8.197  19.814  1.00  0.00    -0.307 OA
HETATM    6  C14         0      34.940   8.571  20.164  1.00  0.00     0.107 C 
HETATM    7  C15         0      35.318   8.670  21.495  1.00  0.00     0.049 C 
HETATM    8  C16         0      36.499   9.302  21.865  1.00  0.00     0.093 C 
HETATM    9  C18         0      37.481   9.335  20.882  1.00  0.00     0.048 C 
HETATM   10  C19         0      37.143   9.192  19.543  1.00  0.00     0.096 C 
HETATM   11  C21         0      35.835   9.001  19.189  1.00  0.00     0.084 C 
ENDROOT
BRANCH  10  12
HETATM   12  O20         0      38.022   9.650  18.567  1.00  0.00    -0.359 OA
HETATM   13  H20         0      37.925   9.310  17.685  1.00  0.00     0.218 HD
ENDBRANCH  10  12
BRANCH   4  14
HETATM   14  C5          0      31.787   8.625  18.474  1.00  0.00     0.025 C 
HETATM   15  C6          0      31.144   8.606  17.244  1.00  0.00     0.004 C 
HETATM   16  C7          0      29.901   7.986  17.176  1.00  0.00     0.026 C 
HETATM   17  C8          0      29.255   7.519  18.316  1.00  0.00     0.112 C 
HETATM   18  C10         0      29.651   8.130  19.498  1.00  0.00     0.112 C 
HETATM   19  C12         0      30.931   8.667  19.567  1.00  0.00     0.028 C 
BRANCH  17  20
HETATM   20  O9          0      28.451   6.394  18.264  1.00  0.00    -0.357 OA
HETATM   21  H9          0      28.282   5.832  19.011  1.00  0.00     0.218 HD
ENDBRANCH  17  20
BRANCH  18  22
HETATM   22  O11         0      28.910   7.839  20.635  1.00  0.00    -0.357 OA
HETATM   23  H11         0      28.563   8.577  21.123  1.00  0.00     0.218 HD
ENDBRANCH  18  22
ENDBRANCH   4  14
BRANCH   8  24
HETATM   24  O17         0      36.563  10.124  22.996  1.00  0.00    -0.359 OA
HETATM   25  H17         0      35.783  10.509  23.378  1.00  0.00     0.218 HD
ENDBRANCH   8  24
TORSDOF 5
ENDMDL
