MODEL 1
REMARK VINA RESULT:      -0.5      0.000      0.000
REMARK  5 active torsions:
REMARK  status: ('A' for Active; 'I' for Inactive)
REMARK    1  A    between atoms: C4_4  and  C5_5 
REMARK    2  A    between atoms: C8_8  and  O9_9 
REMARK    3  A    between atoms: C10_11  and  O11_12 
REMARK    4  A    between atoms: C16_18  and  O17_19 
REMARK    5  A    between atoms: C19_22  and  O20_23 
ROOT
HETATM    1  O1          0      38.146  15.541 -11.131  1.00  0.00    -0.286 OA
HETATM    2  C2          0      37.983  14.587 -11.940  1.00  0.00     0.201 C 
HETATM    3  C3          0      37.144  14.668 -13.038  1.00  0.00     0.067 C 
HETATM    4  C4          0      36.904  13.568 -13.854  1.00  0.00     0.103 C 
HETATM    5  O13         0      37.511  12.428 -13.578  1.00  0.00    -0.307 OA
HETATM    6  C14         0      38.288  12.287 -12.527  1.00  0.00     0.107 C 
HETATM    7  C15         0      38.598  11.037 -12.010  1.00  0.00     0.049 C 
HETATM    8  C16         0      39.200  10.900 -10.765  1.00  0.00     0.093 C 
HETATM    9  C18         0      39.929  12.004 -10.341  1.00  0.00     0.048 C 
HETATM   10  C19         0      39.677  13.262 -10.871  1.00  0.00     0.096 C 
HETATM   11  C21         0      38.714  13.413 -11.832  1.00  0.00     0.084 C 
ENDROOT
BRANCH  10  12
HETATM   12  O20         0      40.073  14.392 -10.162  1.00  0.00    -0.359 OA
HETATM   13  H20         0      40.513  14.263  -9.330  1.00  0.00     0.218 HD
ENDBRANCH  10  12
BRANCH   4  14
HETATM   14  C5          0      35.626  13.531 -14.569  1.00  0.00     0.025 C 
HETATM   15  C6          0      34.697  12.517 -14.395  1.00  0.00     0.004 C 
HETATM   16  C7          0      33.351  12.869 -14.392  1.00  0.00     0.026 C 
HETATM   17  C8          0      32.935  14.163 -14.686  1.00  0.00     0.112 C 
HETATM   18  C10         0      33.835  14.904 -15.441  1.00  0.00     0.112 C 
HETATM   19  C12         0      35.185  14.585 -15.359  1.00  0.00     0.028 C 
BRANCH  17  20
HETATM   20  O9          0      31.814  14.702 -14.080  1.00  0.00    -0.357 OA
HETATM   21  H9          0      31.301  15.410 -14.453  1.00  0.00     0.218 HD
ENDBRANCH  17  20
BRANCH  18  22
HETATM   22  O11         0      33.393  16.129 -15.920  1.00  0.00    -0.357 OA
HETATM   23  H11         0      32.611  16.123 -16.460  1.00  0.00     0.218 HD
ENDBRANCH  18  22
ENDBRANCH   4  14
BRANCH   8  24
HETATM   24  O17         0      38.823   9.883  -9.881  1.00  0.00    -0.359 OA
HETATM   25  H17         0      39.464   9.405  -9.368  1.00  0.00     0.218 HD
ENDBRANCH   8  24
TORSDOF 5
ENDMDL
MODEL 2
REMARK VINA RESULT:      -0.5      3.042      3.757
REMARK  5 active torsions:
REMARK  status: ('A' for Active; 'I' for Inactive)
REMARK    1  A    between atoms: C4_4  and  C5_5 
REMARK    2  A    between atoms: C8_8  and  O9_9 
REMARK    3  A    between atoms: C10_11  and  O11_12 
REMARK    4  A    between atoms: C16_18  and  O17_19 
REMARK    5  A    between atoms: C19_22  and  O20_23 
ROOT
HETATM    1  O1          0      38.554  15.402 -12.728  1.00  0.00    -0.286 OA
HETATM    2  C2          0      38.707  14.392 -13.469  1.00  0.00     0.201 C 
HETATM    3  C3          0      38.281  14.356 -14.786  1.00  0.00     0.067 C 
HETATM    4  C4          0      38.370  13.198 -15.549  1.00  0.00     0.103 C 
HETATM    5  O13         0      38.893  12.115 -15.000  1.00  0.00    -0.307 OA
HETATM    6  C14         0      39.278  12.084 -13.743  1.00  0.00     0.107 C 
HETATM    7  C15         0      39.444  10.889 -13.059  1.00  0.00     0.049 C 
HETATM    8  C16         0      39.599  10.864 -11.678  1.00  0.00     0.093 C 
HETATM    9  C18         0      40.101  12.034 -11.122  1.00  0.00     0.048 C 
HETATM   10  C19         0      39.994  13.240 -11.801  1.00  0.00     0.096 C 
HETATM   11  C21         0      39.403  13.275 -13.035  1.00  0.00     0.084 C 
ENDROOT
BRANCH  10  12
HETATM   12  O20         0      40.088  14.432 -11.090  1.00  0.00    -0.359 OA
HETATM   13  H20         0      40.689  15.095 -11.408  1.00  0.00     0.218 HD
ENDBRANCH  10  12
BRANCH   4  14
HETATM   14  C5          0      37.408  13.040 -16.641  1.00  0.00     0.025 C 
HETATM   15  C6          0      36.719  14.108 -17.197  1.00  0.00     0.004 C 
HETATM   16  C7          0      36.512  14.097 -18.572  1.00  0.00     0.026 C 
HETATM   17  C8          0      36.858  12.998 -19.353  1.00  0.00     0.112 C 
HETATM   18  C10         0      36.932  11.796 -18.661  1.00  0.00     0.112 C 
HETATM   19  C12         0      37.225  11.833 -17.303  1.00  0.00     0.028 C 
BRANCH  17  20
HETATM   20  O9          0      37.293  13.163 -20.656  1.00  0.00    -0.357 OA
HETATM   21  H9          0      37.714  13.953 -20.976  1.00  0.00     0.218 HD
ENDBRANCH  17  20
BRANCH  18  22
HETATM   22  O11         0      37.086  10.644 -19.419  1.00  0.00    -0.357 OA
HETATM   23  H11         0      37.834  10.611 -20.004  1.00  0.00     0.218 HD
ENDBRANCH  18  22
ENDBRANCH   4  14
BRANCH   8  24
HETATM   24  O17         0      38.986   9.881 -10.893  1.00  0.00    -0.359 OA
HETATM   25  H17         0      38.460  10.104 -10.135  1.00  0.00     0.218 HD
ENDBRANCH   8  24
TORSDOF 5
ENDMDL
MODEL 3
REMARK VINA RESULT:      -0.5      1.992      2.186
REMARK  5 active torsions:
REMARK  status: ('A' for Active; 'I' for Inactive)
REMARK    1  A    between atoms: C4_4  and  C5_5 
REMARK    2  A    between atoms: C8_8  and  O9_9 
REMARK    3  A    between atoms: C10_11  and  O11_12 
REMARK    4  A    between atoms: C16_18  and  O17_19 
REMARK    5  A    between atoms: C19_22  and  O20_23 
ROOT
HETATM    1  O1          0      38.590  15.503 -12.760  1.00  0.00    -0.286 OA
HETATM    2  C2          0      38.499  14.361 -13.289  1.00  0.00     0.201 C 
HETATM    3  C3          0      37.930  14.154 -14.533  1.00  0.00     0.067 C 
HETATM    4  C4          0      37.749  12.875 -15.048  1.00  0.00     0.103 C 
HETATM    5  O13         0      38.153  11.840 -14.332  1.00  0.00    -0.307 OA
HETATM    6  C14         0      38.666  11.979 -13.129  1.00  0.00     0.107 C 
HETATM    7  C15         0      38.717  10.924 -12.230  1.00  0.00     0.049 C 
HETATM    8  C16         0      39.018  11.132 -10.889  1.00  0.00     0.093 C 
HETATM    9  C18         0      39.758  12.279 -10.626  1.00  0.00     0.048 C 
HETATM   10  C19         0      39.766  13.335 -11.526  1.00  0.00     0.096 C 
HETATM   11  C21         0      39.055  13.240 -12.691  1.00  0.00     0.084 C 
ENDROOT
BRANCH  10  12
HETATM   12  O20         0      40.125  14.604 -11.083  1.00  0.00    -0.359 OA
HETATM   13  H20         0      40.784  15.078 -11.575  1.00  0.00     0.218 HD
ENDBRANCH  10  12
BRANCH   4  14
HETATM   14  C5          0      36.659  12.686 -16.007  1.00  0.00     0.025 C 
HETATM   15  C6          0      36.678  11.700 -16.982  1.00  0.00     0.004 C 
HETATM   16  C7          0      35.480  11.055 -17.270  1.00  0.00     0.026 C 
HETATM   17  C8          0      34.277  11.465 -16.705  1.00  0.00     0.112 C 
HETATM   18  C10         0      34.257  12.786 -16.279  1.00  0.00     0.112 C 
HETATM   19  C12         0      35.460  13.381 -15.916  1.00  0.00     0.028 C 
BRANCH  17  20
HETATM   20  O9          0      33.281  10.549 -16.415  1.00  0.00    -0.357 OA
HETATM   21  H9          0      33.445   9.631 -16.233  1.00  0.00     0.218 HD
ENDBRANCH  17  20
BRANCH  18  22
HETATM   22  O11         0      33.031  13.301 -15.883  1.00  0.00    -0.357 OA
HETATM   23  H11         0      32.572  12.837 -15.193  1.00  0.00     0.218 HD
ENDBRANCH  18  22
ENDBRANCH   4  14
BRANCH   8  24
HETATM   24  O17         0      38.350  10.438  -9.875  1.00  0.00    -0.359 OA
HETATM   25  H17         0      37.952  10.889  -9.140  1.00  0.00     0.218 HD
ENDBRANCH   8  24
TORSDOF 5
ENDMDL
MODEL 4
REMARK VINA RESULT:      -0.5      1.742      6.694
REMARK  5 active torsions:
REMARK  status: ('A' for Active; 'I' for Inactive)
REMARK    1  A    between atoms: C4_4  and  C5_5 
REMARK    2  A    between atoms: C8_8  and  O9_9 
REMARK    3  A    between atoms: C10_11  and  O11_12 
REMARK    4  A    between atoms: C16_18  and  O17_19 
REMARK    5  A    between atoms: C19_22  and  O20_23 
ROOT
HETATM    1  O1          0      33.578  13.476 -12.318  1.00  0.00    -0.286 OA
HETATM    2  C2          0      34.471  13.106 -13.128  1.00  0.00     0.201 C 
HETATM    3  C3          0      35.786  12.895 -12.750  1.00  0.00     0.067 C 
HETATM    4  C4          0      36.772  12.587 -13.681  1.00  0.00     0.103 C 
HETATM    5  O13         0      36.431  12.476 -14.953  1.00  0.00    -0.307 OA
HETATM    6  C14         0      35.205  12.703 -15.370  1.00  0.00     0.107 C 
HETATM    7  C15         0      34.925  12.981 -16.701  1.00  0.00     0.049 C 
HETATM    8  C16         0      33.683  13.466 -17.091  1.00  0.00     0.093 C 
HETATM    9  C18         0      32.635  13.155 -16.232  1.00  0.00     0.048 C 
HETATM   10  C19         0      32.883  12.826 -14.907  1.00  0.00     0.096 C 
HETATM   11  C21         0      34.170  12.792 -14.445  1.00  0.00     0.084 C 
ENDROOT
BRANCH  10  12
HETATM   12  O20         0      31.858  12.946 -13.973  1.00  0.00    -0.359 OA
HETATM   13  H20         0      30.988  12.664 -14.228  1.00  0.00     0.218 HD
ENDBRANCH  10  12
BRANCH   4  14
HETATM   14  C5          0      38.147  12.965 -13.351  1.00  0.00     0.025 C 
HETATM   15  C6          0      38.834  13.966 -14.023  1.00  0.00     0.004 C 
HETATM   16  C7          0      39.666  14.792 -13.274  1.00  0.00     0.026 C 
HETATM   17  C8          0      39.912  14.551 -11.927  1.00  0.00     0.112 C 
HETATM   18  C10         0      39.715  13.236 -11.528  1.00  0.00     0.112 C 
HETATM   19  C12         0      38.813  12.457 -12.243  1.00  0.00     0.028 C 
BRANCH  17  20
HETATM   20  O9          0      40.125  15.597 -11.047  1.00  0.00    -0.357 OA
HETATM   21  H9          0      40.700  15.543 -10.292  1.00  0.00     0.218 HD
ENDBRANCH  17  20
BRANCH  18  22
HETATM   22  O11         0      40.125  12.900 -10.245  1.00  0.00    -0.357 OA
HETATM   23  H11         0      39.484  12.995  -9.550  1.00  0.00     0.218 HD
ENDBRANCH  18  22
ENDBRANCH   4  14
BRANCH   8  24
HETATM   24  O17         0      33.562  14.460 -18.068  1.00  0.00    -0.359 OA
HETATM   25  H17         0      34.323  14.894 -18.435  1.00  0.00     0.218 HD
ENDBRANCH   8  24
TORSDOF 5
ENDMDL
MODEL 5
REMARK VINA RESULT:      -0.5      3.910      6.446
REMARK  5 active torsions:
REMARK  status: ('A' for Active; 'I' for Inactive)
REMARK    1  A    between atoms: C4_4  and  C5_5 
REMARK    2  A    between atoms: C8_8  and  O9_9 
REMARK    3  A    between atoms: C10_11  and  O11_12 
REMARK    4  A    between atoms: C16_18  and  O17_19 
REMARK    5  A    between atoms: C19_22  and  O20_23 
ROOT
HETATM    1  O1          0      39.201  16.068 -14.792  1.00  0.00    -0.286 OA
HETATM    2  C2          0      39.404  15.974 -13.550  1.00  0.00     0.201 C 
HETATM    3  C3          0      39.630  14.764 -12.916  1.00  0.00     0.067 C 
HETATM    4  C4          0      39.749  14.678 -11.533  1.00  0.00     0.103 C 
HETATM    5  O13         0      39.663  15.785 -10.818  1.00  0.00    -0.307 OA
HETATM    6  C14         0      39.413  16.954 -11.367  1.00  0.00     0.107 C 
HETATM    7  C15         0      38.931  18.022 -10.623  1.00  0.00     0.049 C 
HETATM    8  C16         0      38.430  19.162 -11.240  1.00  0.00     0.093 C 
HETATM    9  C18         0      38.912  19.396 -12.522  1.00  0.00     0.048 C 
HETATM   10  C19         0      39.443  18.359 -13.276  1.00  0.00     0.096 C 
HETATM   11  C21         0      39.509  17.099 -12.746  1.00  0.00     0.084 C 
ENDROOT
BRANCH  10  12
HETATM   12  O20         0      39.511  18.489 -14.660  1.00  0.00    -0.359 OA
HETATM   13  H20         0      40.370  18.546 -15.060  1.00  0.00     0.218 HD
ENDBRANCH  10  12
BRANCH   4  14
HETATM   14  C5          0      39.384  13.405 -10.908  1.00  0.00     0.025 C 
HETATM   15  C6          0      38.204  13.225 -10.201  1.00  0.00     0.004 C 
HETATM   16  C7          0      37.549  12.006 -10.341  1.00  0.00     0.026 C 
HETATM   17  C8          0      38.113  10.951 -11.050  1.00  0.00     0.112 C 
HETATM   18  C10         0      39.496  11.001 -11.160  1.00  0.00     0.112 C 
HETATM   19  C12         0      40.119  12.242 -11.103  1.00  0.00     0.028 C 
BRANCH  17  20
HETATM   20  O9          0      37.317  10.064 -11.753  1.00  0.00    -0.357 OA
HETATM   21  H9          0      37.618   9.569 -12.507  1.00  0.00     0.218 HD
ENDBRANCH  17  20
BRANCH  18  22
HETATM   22  O11         0      40.125   9.884 -11.691  1.00  0.00    -0.357 OA
HETATM   23  H11         0      39.567   9.223 -12.086  1.00  0.00     0.218 HD
ENDBRANCH  18  22
ENDBRANCH   4  14
BRANCH   8  24
HETATM   24  O17         0      37.295  19.817 -10.749  1.00  0.00    -0.359 OA
HETATM   25  H17         0      37.047  19.768  -9.833  1.00  0.00     0.218 HD
ENDBRANCH   8  24
TORSDOF 5
ENDMDL
MODEL 6
REMARK VINA RESULT:      -0.4      3.920      4.234
REMARK  5 active torsions:
REMARK  status: ('A' for Active; 'I' for Inactive)
REMARK    1  A    between atoms: C4_4  and  C5_5 
REMARK    2  A    between atoms: C8_8  and  O9_9 
REMARK    3  A    between atoms: C10_11  and  O11_12 
REMARK    4  A    between atoms: C16_18  and  O17_19 
REMARK    5  A    between atoms: C19_22  and  O20_23 
ROOT
HETATM    1  O1          0      39.597  15.475 -13.800  1.00  0.00    -0.286 OA
HETATM    2  C2          0      39.811  14.252 -14.019  1.00  0.00     0.201 C 
HETATM    3  C3          0      39.939  13.729 -15.295  1.00  0.00     0.067 C 
HETATM    4  C4          0      40.072  12.363 -15.513  1.00  0.00     0.103 C 
HETATM    5  O13         0      40.097  11.553 -14.469  1.00  0.00    -0.307 OA
HETATM    6  C14         0      39.942  11.993 -13.240  1.00  0.00     0.107 C 
HETATM    7  C15         0      39.570  11.149 -12.203  1.00  0.00     0.049 C 
HETATM    8  C16         0      39.162  11.653 -10.974  1.00  0.00     0.093 C 
HETATM    9  C18         0      39.642  12.921 -10.671  1.00  0.00     0.048 C 
HETATM   10  C19         0      40.066  13.774 -11.680  1.00  0.00     0.096 C 
HETATM   11  C21         0      40.029  13.357 -12.983  1.00  0.00     0.084 C 
ENDROOT
BRANCH  10  12
HETATM   12  O20         0      40.123  15.143 -11.436  1.00  0.00    -0.359 OA
HETATM   13  H20         0      40.286  15.429 -10.545  1.00  0.00     0.218 HD
ENDBRANCH  10  12
BRANCH   4  14
HETATM   14  C5          0      39.606  11.841 -16.799  1.00  0.00     0.025 C 
HETATM   15  C6          0      38.952  10.624 -16.924  1.00  0.00     0.004 C 
HETATM   16  C7          0      37.905  10.545 -17.838  1.00  0.00     0.026 C 
HETATM   17  C8          0      37.605  11.598 -18.695  1.00  0.00     0.112 C 
HETATM   18  C10         0      38.659  12.469 -18.935  1.00  0.00     0.112 C 
HETATM   19  C12         0      39.648  12.592 -17.967  1.00  0.00     0.028 C 
BRANCH  17  20
HETATM   20  O9          0      36.300  11.845 -19.083  1.00  0.00    -0.357 OA
HETATM   21  H9          0      35.574  11.261 -18.897  1.00  0.00     0.218 HD
ENDBRANCH  17  20
BRANCH  18  22
HETATM   22  O11         0      38.472  13.424 -19.924  1.00  0.00    -0.357 OA
HETATM   23  H11         0      37.988  14.205 -19.682  1.00  0.00     0.218 HD
ENDBRANCH  18  22
ENDBRANCH   4  14
BRANCH   8  24
HETATM   24  O17         0      38.098  11.081 -10.268  1.00  0.00    -0.359 OA
HETATM   25  H17         0      37.213  11.417 -10.340  1.00  0.00     0.218 HD
ENDBRANCH   8  24
TORSDOF 5
ENDMDL
MODEL 7
REMARK VINA RESULT:      -0.4      2.046      3.150
REMARK  5 active torsions:
REMARK  status: ('A' for Active; 'I' for Inactive)
REMARK    1  A    between atoms: C4_4  and  C5_5 
REMARK    2  A    between atoms: C8_8  and  O9_9 
REMARK    3  A    between atoms: C10_11  and  O11_12 
REMARK    4  A    between atoms: C16_18  and  O17_19 
REMARK    5  A    between atoms: C19_22  and  O20_23 
ROOT
HETATM    1  O1          0      37.240  11.754 -14.925  1.00  0.00    -0.286 OA
HETATM    2  C2          0      36.725  12.001 -13.800  1.00  0.00     0.201 C 
HETATM    3  C3          0      35.401  12.378 -13.648  1.00  0.00     0.067 C 
HETATM    4  C4          0      34.886  12.744 -12.410  1.00  0.00     0.103 C 
HETATM    5  O13         0      35.681  12.707 -11.355  1.00  0.00    -0.307 OA
HETATM    6  C14         0      36.954  12.392 -11.450  1.00  0.00     0.107 C 
HETATM    7  C15         0      37.867  12.730 -10.462  1.00  0.00     0.049 C 
HETATM    8  C16         0      39.236  12.626 -10.677  1.00  0.00     0.093 C 
HETATM    9  C18         0      39.608  11.710 -11.653  1.00  0.00     0.048 C 
HETATM   10  C19         0      38.705  11.314 -12.630  1.00  0.00     0.096 C 
HETATM   11  C21         0      37.433  11.816 -12.623  1.00  0.00     0.084 C 
ENDROOT
BRANCH  10  12
HETATM   12  O20         0      39.184  10.767 -13.817  1.00  0.00    -0.359 OA
HETATM   13  H20         0      39.177  11.314 -14.594  1.00  0.00     0.218 HD
ENDBRANCH  10  12
BRANCH   4  14
HETATM   14  C5          0      33.749  13.666 -12.403  1.00  0.00     0.025 C 
HETATM   15  C6          0      33.374  14.389 -11.280  1.00  0.00     0.004 C 
HETATM   16  C7          0      32.934  15.695 -11.472  1.00  0.00     0.026 C 
HETATM   17  C8          0      32.744  16.222 -12.745  1.00  0.00     0.112 C 
HETATM   18  C10         0      32.531  15.275 -13.738  1.00  0.00     0.112 C 
HETATM   19  C12         0      33.055  14.000 -13.559  1.00  0.00     0.028 C 
BRANCH  17  20
HETATM   20  O9          0      32.970  17.563 -12.998  1.00  0.00    -0.357 OA
HETATM   21  H9          0      32.291  18.170 -13.269  1.00  0.00     0.218 HD
ENDBRANCH  17  20
BRANCH  18  22
HETATM   22  O11         0      32.150  15.748 -14.985  1.00  0.00    -0.357 OA
HETATM   23  H11         0      31.585  16.512 -15.002  1.00  0.00     0.218 HD
ENDBRANCH  18  22
ENDBRANCH   4  14
BRANCH   8  24
HETATM   24  O17         0      40.125  13.595 -10.200  1.00  0.00    -0.359 OA
HETATM   25  H17         0      40.803  13.384  -9.569  1.00  0.00     0.218 HD
ENDBRANCH   8  24
TORSDOF 5
ENDMDL
MODEL 8
REMARK VINA RESULT:      -0.4      3.052      4.992
REMARK  5 active torsions:
REMARK  status: ('A' for Active; 'I' for Inactive)
REMARK    1  A    between atoms: C4_4  and  C5_5 
REMARK    2  A    between atoms: C8_8  and  O9_9 
REMARK    3  A    between atoms: C10_11  and  O11_12 
REMARK    4  A    between atoms: C16_18  and  O17_19 
REMARK    5  A    between atoms: C19_22  and  O20_23 
ROOT
HETATM    1  O1          0      35.888  13.779 -12.059  1.00  0.00    -0.286 OA
HETATM    2  C2          0      37.065  14.087 -11.727  1.00  0.00     0.201 C 
HETATM    3  C3          0      37.684  15.250 -12.152  1.00  0.00     0.067 C 
HETATM    4  C4          0      39.016  15.517 -11.855  1.00  0.00     0.103 C 
HETATM    5  O13         0      39.693  14.642 -11.132  1.00  0.00    -0.307 OA
HETATM    6  C14         0      39.164  13.506 -10.734  1.00  0.00     0.107 C 
HETATM    7  C15         0      39.949  12.433 -10.339  1.00  0.00     0.049 C 
HETATM    8  C16         0      39.406  11.165 -10.166  1.00  0.00     0.093 C 
HETATM    9  C18         0      38.044  11.143  -9.887  1.00  0.00     0.048 C 
HETATM   10  C19         0      37.237  12.220 -10.228  1.00  0.00     0.096 C 
HETATM   11  C21         0      37.788  13.319 -10.827  1.00  0.00     0.084 C 
ENDROOT
BRANCH  10  12
HETATM   12  O20         0      35.864  12.029 -10.352  1.00  0.00    -0.359 OA
HETATM   13  H20         0      35.322  12.182  -9.588  1.00  0.00     0.218 HD
ENDBRANCH  10  12
BRANCH   4  14
HETATM   14  C5          0      39.749  16.381 -12.782  1.00  0.00     0.025 C 
HETATM   15  C6          0      40.077  15.993 -14.073  1.00  0.00     0.004 C 
HETATM   16  C7          0      39.999  16.955 -15.075  1.00  0.00     0.026 C 
HETATM   17  C8          0      39.736  18.289 -14.786  1.00  0.00     0.112 C 
HETATM   18  C10         0      40.051  18.675 -13.490  1.00  0.00     0.112 C 
HETATM   19  C12         0      40.038  17.708 -12.492  1.00  0.00     0.028 C 
BRANCH  17  20
HETATM   20  O9          0      39.022  19.079 -15.671  1.00  0.00    -0.357 OA
HETATM   21  H9          0      38.280  18.767 -16.176  1.00  0.00     0.218 HD
ENDBRANCH  17  20
BRANCH  18  22
HETATM   22  O11         0      39.986  20.032 -13.205  1.00  0.00    -0.357 OA
HETATM   23  H11         0      40.529  20.348 -12.492  1.00  0.00     0.218 HD
ENDBRANCH  18  22
ENDBRANCH   4  14
BRANCH   8  24
HETATM   24  O17         0      40.092  10.016 -10.574  1.00  0.00    -0.359 OA
HETATM   25  H17         0      40.865  10.065 -11.124  1.00  0.00     0.218 HD
ENDBRANCH   8  24
TORSDOF 5
ENDMDL
MODEL 9
REMARK VINA RESULT:      -0.4      1.878      2.854
REMARK  5 active torsions:
REMARK  status: ('A' for Active; 'I' for Inactive)
REMARK    1  A    between atoms: C4_4  and  C5_5 
REMARK    2  A    between atoms: C8_8  and  O9_9 
REMARK    3  A    between atoms: C10_11  and  O11_12 
REMARK    4  A    between atoms: C16_18  and  O17_19 
REMARK    5  A    between atoms: C19_22  and  O20_23 
ROOT
HETATM    1  O1          0      36.904  16.421 -14.330  1.00  0.00    -0.286 OA
HETATM    2  C2          0      36.865  15.179 -14.115  1.00  0.00     0.201 C 
HETATM    3  C3          0      35.743  14.409 -14.369  1.00  0.00     0.067 C 
HETATM    4  C4          0      35.691  13.062 -14.028  1.00  0.00     0.103 C 
HETATM    5  O13         0      36.751  12.508 -13.466  1.00  0.00    -0.307 OA
HETATM    6  C14         0      37.828  13.202 -13.170  1.00  0.00     0.107 C 
HETATM    7  C15         0      38.758  12.749 -12.245  1.00  0.00     0.049 C 
HETATM    8  C16         0      39.749  13.587 -11.749  1.00  0.00     0.093 C 
HETATM    9  C18         0      40.083  14.654 -12.574  1.00  0.00     0.048 C 
HETATM   10  C19         0      39.195  15.103 -13.541  1.00  0.00     0.096 C 
HETATM   11  C21         0      37.986  14.480 -13.695  1.00  0.00     0.084 C 
ENDROOT
BRANCH  10  12
HETATM   12  O20         0      39.332  16.393 -14.045  1.00  0.00    -0.359 OA
HETATM   13  H20         0      40.130  16.605 -14.514  1.00  0.00     0.218 HD
ENDBRANCH  10  12
BRANCH   4  14
HETATM   14  C5          0      34.370  12.490 -13.757  1.00  0.00     0.025 C 
HETATM   15  C6          0      34.174  11.432 -12.882  1.00  0.00     0.004 C 
HETATM   16  C7          0      33.035  11.459 -12.083  1.00  0.00     0.026 C 
HETATM   17  C8          0      32.056  12.434 -12.242  1.00  0.00     0.112 C 
HETATM   18  C10         0      32.025  13.025 -13.497  1.00  0.00     0.112 C 
HETATM   19  C12         0      33.199  13.060 -14.240  1.00  0.00     0.028 C 
BRANCH  17  20
HETATM   20  O9          0      31.335  12.898 -11.156  1.00  0.00    -0.357 OA
HETATM   21  H9          0      31.642  13.582 -10.572  1.00  0.00     0.218 HD
ENDBRANCH  17  20
BRANCH  18  22
HETATM   22  O11         0      30.954  13.863 -13.771  1.00  0.00    -0.357 OA
HETATM   23  H11         0      30.816  14.102 -14.680  1.00  0.00     0.218 HD
ENDBRANCH  18  22
ENDBRANCH   4  14
BRANCH   8  24
HETATM   24  O17         0      40.125  13.553 -10.401  1.00  0.00    -0.359 OA
HETATM   25  H17         0      40.813  12.977 -10.090  1.00  0.00     0.218 HD
ENDBRANCH   8  24
TORSDOF 5
ENDMDL
