MODEL 1
REMARK VINA RESULT:      -4.6      0.000      0.000
REMARK  5 active torsions:
REMARK  status: ('A' for Active; 'I' for Inactive)
REMARK    1  A    between atoms: C4_4  and  C5_5 
REMARK    2  A    between atoms: C8_8  and  O9_9 
REMARK    3  A    between atoms: C10_11  and  O11_12 
REMARK    4  A    between atoms: C16_18  and  O17_19 
REMARK    5  A    between atoms: C19_22  and  O20_23 
ROOT
HETATM    1  O1          0      52.530  79.360 -12.940  1.00  0.00    -0.286 OA
HETATM    2  C2          0      51.943  79.950 -13.889  1.00  0.00     0.201 C 
HETATM    3  C3          0      52.121  79.598 -15.216  1.00  0.00     0.067 C 
HETATM    4  C4          0      51.544  80.330 -16.247  1.00  0.00     0.103 C 
HETATM    5  O13         0      50.792  81.373 -15.942  1.00  0.00    -0.307 OA
HETATM    6  C14         0      50.622  81.772 -14.701  1.00  0.00     0.107 C 
HETATM    7  C15         0      50.188  83.055 -14.398  1.00  0.00     0.049 C 
HETATM    8  C16         0      50.253  83.552 -13.102  1.00  0.00     0.093 C 
HETATM    9  C18         0      50.250  82.587 -12.103  1.00  0.00     0.048 C 
HETATM   10  C19         0      50.633  81.282 -12.381  1.00  0.00     0.096 C 
HETATM   11  C21         0      51.001  80.939 -13.654  1.00  0.00     0.084 C 
ENDROOT
BRANCH  10  12
HETATM   12  O20         0      51.043  80.456 -11.339  1.00  0.00    -0.359 OA
HETATM   13  H20         0      50.712  80.641 -10.468  1.00  0.00     0.218 HD
ENDBRANCH  10  12
BRANCH   4  14
HETATM   14  C5          0      52.218  80.304 -17.547  1.00  0.00     0.025 C 
HETATM   15  C6          0      51.808  81.077 -18.623  1.00  0.00     0.004 C 
HETATM   16  C7          0      52.795  81.629 -19.433  1.00  0.00     0.026 C 
HETATM   17  C8          0      54.139  81.315 -19.262  1.00  0.00     0.112 C 
HETATM   18  C10         0      54.375  80.104 -18.625  1.00  0.00     0.112 C 
HETATM   19  C12         0      53.407  79.617 -17.754  1.00  0.00     0.028 C 
BRANCH  17  20
HETATM   20  O9          0      55.125  82.250 -19.524  1.00  0.00    -0.357 OA
HETATM   21  H9          0      55.188  82.736 -20.338  1.00  0.00     0.218 HD
ENDBRANCH  17  20
BRANCH  18  22
HETATM   22  O11         0      55.687  79.653 -18.597  1.00  0.00    -0.357 OA
HETATM   23  H11         0      55.847  78.821 -18.168  1.00  0.00     0.218 HD
ENDBRANCH  18  22
ENDBRANCH   4  14
BRANCH   8  24
HETATM   24  O17         0      50.631  84.875 -12.846  1.00  0.00    -0.359 OA
HETATM   25  H17         0      49.998  85.533 -12.583  1.00  0.00     0.218 HD
ENDBRANCH   8  24
TORSDOF 5
ENDMDL
MODEL 2
REMARK VINA RESULT:      -4.4      1.458      1.957
REMARK  5 active torsions:
REMARK  status: ('A' for Active; 'I' for Inactive)
REMARK    1  A    between atoms: C4_4  and  C5_5 
REMARK    2  A    between atoms: C8_8  and  O9_9 
REMARK    3  A    between atoms: C10_11  and  O11_12 
REMARK    4  A    between atoms: C16_18  and  O17_19 
REMARK    5  A    between atoms: C19_22  and  O20_23 
ROOT
HETATM    1  O1          0      51.138  79.681 -12.038  1.00  0.00    -0.286 OA
HETATM    2  C2          0      50.783  80.562 -12.868  1.00  0.00     0.201 C 
HETATM    3  C3          0      50.564  80.287 -14.207  1.00  0.00     0.067 C 
HETATM    4  C4          0      50.274  81.294 -15.120  1.00  0.00     0.103 C 
HETATM    5  O13         0      50.187  82.539 -14.686  1.00  0.00    -0.307 OA
HETATM    6  C14         0      50.421  82.860 -13.432  1.00  0.00     0.107 C 
HETATM    7  C15         0      50.724  84.160 -13.055  1.00  0.00     0.049 C 
HETATM    8  C16         0      51.217  84.448 -11.787  1.00  0.00     0.093 C 
HETATM    9  C18         0      50.890  83.520 -10.806  1.00  0.00     0.048 C 
HETATM   10  C19         0      50.537  82.222 -11.151  1.00  0.00     0.096 C 
HETATM   11  C21         0      50.494  81.858 -12.470  1.00  0.00     0.084 C 
ENDROOT
BRANCH  10  12
HETATM   12  O20         0      50.639  81.213 -10.199  1.00  0.00    -0.359 OA
HETATM   13  H20         0      49.837  80.886  -9.809  1.00  0.00     0.218 HD
ENDBRANCH  10  12
BRANCH   4  14
HETATM   14  C5          0      50.646  81.060 -16.517  1.00  0.00     0.025 C 
HETATM   15  C6          0      50.784  82.086 -17.440  1.00  0.00     0.004 C 
HETATM   16  C7          0      51.816  81.983 -18.369  1.00  0.00     0.026 C 
HETATM   17  C8          0      52.599  80.838 -18.464  1.00  0.00     0.112 C 
HETATM   18  C10         0      52.002  79.684 -17.973  1.00  0.00     0.112 C 
HETATM   19  C12         0      51.034  79.811 -16.984  1.00  0.00     0.028 C 
BRANCH  17  20
HETATM   20  O9          0      53.933  80.920 -18.824  1.00  0.00    -0.357 OA
HETATM   21  H9          0      54.401  80.227 -19.275  1.00  0.00     0.218 HD
ENDBRANCH  17  20
BRANCH  18  22
HETATM   22  O11         0      52.659  78.486 -18.214  1.00  0.00    -0.357 OA
HETATM   23  H11         0      52.370  77.730 -17.716  1.00  0.00     0.218 HD
ENDBRANCH  18  22
ENDBRANCH   4  14
BRANCH   8  24
HETATM   24  O17         0      52.229  85.395 -11.596  1.00  0.00    -0.359 OA
HETATM   25  H17         0      52.776  85.392 -10.820  1.00  0.00     0.218 HD
ENDBRANCH   8  24
TORSDOF 5
ENDMDL
MODEL 3
REMARK VINA RESULT:      -4.3     13.141     15.424
REMARK  5 active torsions:
REMARK  status: ('A' for Active; 'I' for Inactive)
REMARK    1  A    between atoms: C4_4  and  C5_5 
REMARK    2  A    between atoms: C8_8  and  O9_9 
REMARK    3  A    between atoms: C10_11  and  O11_12 
REMARK    4  A    between atoms: C16_18  and  O17_19 
REMARK    5  A    between atoms: C19_22  and  O20_23 
ROOT
HETATM    1  O1          0      50.278  73.689  -5.200  1.00  0.00    -0.286 OA
HETATM    2  C2          0      50.687  74.139  -4.095  1.00  0.00     0.201 C 
HETATM    3  C3          0      50.583  75.474  -3.743  1.00  0.00     0.067 C 
HETATM    4  C4          0      51.133  75.962  -2.563  1.00  0.00     0.103 C 
HETATM    5  O13         0      51.752  75.118  -1.755  1.00  0.00    -0.307 OA
HETATM    6  C14         0      51.911  73.849  -2.059  1.00  0.00     0.107 C 
HETATM    7  C15         0      52.875  73.065  -1.441  1.00  0.00     0.049 C 
HETATM    8  C16         0      53.211  71.811  -1.936  1.00  0.00     0.093 C 
HETATM    9  C18         0      52.221  71.192  -2.689  1.00  0.00     0.048 C 
HETATM   10  C19         0      51.215  71.942  -3.283  1.00  0.00     0.096 C 
HETATM   11  C21         0      51.188  73.299  -3.112  1.00  0.00     0.084 C 
ENDROOT
BRANCH  10  12
HETATM   12  O20         0      50.511  71.406  -4.357  1.00  0.00    -0.359 OA
HETATM   13  H20         0      50.818  71.604  -5.234  1.00  0.00     0.218 HD
ENDBRANCH  10  12
BRANCH   4  14
HETATM   14  C5          0      51.519  77.374  -2.538  1.00  0.00     0.025 C 
HETATM   15  C6          0      51.000  78.311  -3.419  1.00  0.00     0.004 C 
HETATM   16  C7          0      50.731  79.582  -2.922  1.00  0.00     0.026 C 
HETATM   17  C8          0      51.089  79.952  -1.630  1.00  0.00     0.112 C 
HETATM   18  C10         0      52.125  79.208  -1.081  1.00  0.00     0.112 C 
HETATM   19  C12         0      52.319  77.909  -1.536  1.00  0.00     0.028 C 
BRANCH  17  20
HETATM   20  O9          0      50.317  80.844  -0.908  1.00  0.00    -0.357 OA
HETATM   21  H9          0      50.677  81.532  -0.360  1.00  0.00     0.218 HD
ENDBRANCH  17  20
BRANCH  18  22
HETATM   22  O11         0      52.648  79.653   0.125  1.00  0.00    -0.357 OA
HETATM   23  H11         0      53.142  80.465   0.106  1.00  0.00     0.218 HD
ENDBRANCH  18  22
ENDBRANCH   4  14
BRANCH   8  24
HETATM   24  O17         0      54.539  71.369  -1.960  1.00  0.00    -0.359 OA
HETATM   25  H17         0      55.200  71.802  -2.487  1.00  0.00     0.218 HD
ENDBRANCH   8  24
TORSDOF 5
ENDMDL
MODEL 4
REMARK VINA RESULT:      -4.2     12.445     14.212
REMARK  5 active torsions:
REMARK  status: ('A' for Active; 'I' for Inactive)
REMARK    1  A    between atoms: C4_4  and  C5_5 
REMARK    2  A    between atoms: C8_8  and  O9_9 
REMARK    3  A    between atoms: C10_11  and  O11_12 
REMARK    4  A    between atoms: C16_18  and  O17_19 
REMARK    5  A    between atoms: C19_22  and  O20_23 
ROOT
HETATM    1  O1          0      53.822  75.128  -4.805  1.00  0.00    -0.286 OA
HETATM    2  C2          0      52.688  75.485  -4.381  1.00  0.00     0.201 C 
HETATM    3  C3          0      52.345  76.811  -4.181  1.00  0.00     0.067 C 
HETATM    4  C4          0      51.127  77.171  -3.616  1.00  0.00     0.103 C 
HETATM    5  O13         0      50.274  76.217  -3.285  1.00  0.00    -0.307 OA
HETATM    6  C14         0      50.565  74.942  -3.420  1.00  0.00     0.107 C 
HETATM    7  C15         0      49.876  73.957  -2.727  1.00  0.00     0.049 C 
HETATM    8  C16         0      50.344  72.650  -2.672  1.00  0.00     0.093 C 
HETATM    9  C18         0      51.171  72.279  -3.725  1.00  0.00     0.048 C 
HETATM   10  C19         0      51.840  73.241  -4.470  1.00  0.00     0.096 C 
HETATM   11  C21         0      51.670  74.566  -4.176  1.00  0.00     0.084 C 
ENDROOT
BRANCH  10  12
HETATM   12  O20         0      52.965  72.874  -5.202  1.00  0.00    -0.359 OA
HETATM   13  H20         0      53.602  72.306  -4.785  1.00  0.00     0.218 HD
ENDBRANCH  10  12
BRANCH   4  14
HETATM   14  C5          0      51.071  78.446  -2.899  1.00  0.00     0.025 C 
HETATM   15  C6          0      51.957  78.776  -1.884  1.00  0.00     0.004 C 
HETATM   16  C7          0      52.398  80.094  -1.817  1.00  0.00     0.026 C 
HETATM   17  C8          0      51.875  81.081  -2.645  1.00  0.00     0.112 C 
HETATM   18  C10         0      50.609  80.808  -3.145  1.00  0.00     0.112 C 
HETATM   19  C12         0      50.226  79.479  -3.281  1.00  0.00     0.028 C 
BRANCH  17  20
HETATM   20  O9          0      52.664  82.130  -3.083  1.00  0.00    -0.357 OA
HETATM   21  H9          0      52.316  82.939  -3.440  1.00  0.00     0.218 HD
ENDBRANCH  17  20
BRANCH  18  22
HETATM   22  O11         0      49.965  81.835  -3.820  1.00  0.00    -0.357 OA
HETATM   23  H11         0      49.101  81.645  -4.168  1.00  0.00     0.218 HD
ENDBRANCH  18  22
ENDBRANCH   4  14
BRANCH   8  24
HETATM   24  O17         0      50.267  71.896  -1.496  1.00  0.00    -0.359 OA
HETATM   25  H17         0      50.347  72.299  -0.639  1.00  0.00     0.218 HD
ENDBRANCH   8  24
TORSDOF 5
ENDMDL
MODEL 5
REMARK VINA RESULT:      -4.2     12.826     15.070
REMARK  5 active torsions:
REMARK  status: ('A' for Active; 'I' for Inactive)
REMARK    1  A    between atoms: C4_4  and  C5_5 
REMARK    2  A    between atoms: C8_8  and  O9_9 
REMARK    3  A    between atoms: C10_11  and  O11_12 
REMARK    4  A    between atoms: C16_18  and  O17_19 
REMARK    5  A    between atoms: C19_22  and  O20_23 
ROOT
HETATM    1  O1          0      54.348  73.093  -4.574  1.00  0.00    -0.286 OA
HETATM    2  C2          0      53.191  73.418  -4.192  1.00  0.00     0.201 C 
HETATM    3  C3          0      52.784  74.736  -4.068  1.00  0.00     0.067 C 
HETATM    4  C4          0      51.539  75.068  -3.548  1.00  0.00     0.103 C 
HETATM    5  O13         0      50.722  74.095  -3.185  1.00  0.00    -0.307 OA
HETATM    6  C14         0      51.072  72.829  -3.248  1.00  0.00     0.107 C 
HETATM    7  C15         0      50.411  71.851  -2.519  1.00  0.00     0.049 C 
HETATM    8  C16         0      50.936  70.571  -2.387  1.00  0.00     0.093 C 
HETATM    9  C18         0      51.802  70.184  -3.402  1.00  0.00     0.048 C 
HETATM   10  C19         0      52.445  71.137  -4.182  1.00  0.00     0.096 C 
HETATM   11  C21         0      52.210  72.466  -3.960  1.00  0.00     0.084 C 
ENDROOT
BRANCH  10  12
HETATM   12  O20         0      53.601  70.784  -4.871  1.00  0.00    -0.359 OA
HETATM   13  H20         0      53.573  70.011  -5.422  1.00  0.00     0.218 HD
ENDBRANCH  10  12
BRANCH   4  14
HETATM   14  C5          0      51.410  76.374  -2.899  1.00  0.00     0.025 C 
HETATM   15  C6          0      52.164  76.742  -1.793  1.00  0.00     0.004 C 
HETATM   16  C7          0      52.612  78.057  -1.727  1.00  0.00     0.026 C 
HETATM   17  C8          0      52.214  79.011  -2.657  1.00  0.00     0.112 C 
HETATM   18  C10         0      51.018  78.727  -3.303  1.00  0.00     0.112 C 
HETATM   19  C12         0      50.636  77.397  -3.430  1.00  0.00     0.028 C 
BRANCH  17  20
HETATM   20  O9          0      53.067  80.033  -3.035  1.00  0.00    -0.357 OA
HETATM   21  H9          0      52.954  80.551  -3.823  1.00  0.00     0.218 HD
ENDBRANCH  17  20
BRANCH  18  22
HETATM   22  O11         0      50.480  79.729  -4.098  1.00  0.00    -0.357 OA
HETATM   23  H11         0      49.582  79.984  -3.920  1.00  0.00     0.218 HD
ENDBRANCH  18  22
ENDBRANCH   4  14
BRANCH   8  24
HETATM   24  O17         0      50.866  69.875  -1.175  1.00  0.00    -0.359 OA
HETATM   25  H17         0      50.815  70.328  -0.342  1.00  0.00     0.218 HD
ENDBRANCH   8  24
TORSDOF 5
ENDMDL
MODEL 6
REMARK VINA RESULT:      -4.1     11.997     13.265
REMARK  5 active torsions:
REMARK  status: ('A' for Active; 'I' for Inactive)
REMARK    1  A    between atoms: C4_4  and  C5_5 
REMARK    2  A    between atoms: C8_8  and  O9_9 
REMARK    3  A    between atoms: C10_11  and  O11_12 
REMARK    4  A    between atoms: C16_18  and  O17_19 
REMARK    5  A    between atoms: C19_22  and  O20_23 
ROOT
HETATM    1  O1          0      52.913  79.002  -0.692  1.00  0.00    -0.286 OA
HETATM    2  C2          0      52.041  78.779  -1.576  1.00  0.00     0.201 C 
HETATM    3  C3          0      51.910  77.554  -2.208  1.00  0.00     0.067 C 
HETATM    4  C4          0      51.010  77.364  -3.250  1.00  0.00     0.103 C 
HETATM    5  O13         0      50.250  78.378  -3.625  1.00  0.00    -0.307 OA
HETATM    6  C14         0      50.360  79.572  -3.084  1.00  0.00     0.107 C 
HETATM    7  C15         0      49.878  80.709  -3.716  1.00  0.00     0.049 C 
HETATM    8  C16         0      50.217  81.981  -3.271  1.00  0.00     0.093 C 
HETATM    9  C18         0      50.579  82.057  -1.931  1.00  0.00     0.048 C 
HETATM   10  C19         0      51.021  80.928  -1.255  1.00  0.00     0.096 C 
HETATM   11  C21         0      51.086  79.727  -1.907  1.00  0.00     0.084 C 
ENDROOT
BRANCH  10  12
HETATM   12  O20         0      51.774  81.082  -0.095  1.00  0.00    -0.359 OA
HETATM   13  H20         0      52.077  80.297   0.346  1.00  0.00     0.218 HD
ENDBRANCH  10  12
BRANCH   4  14
HETATM   14  C5          0      51.327  76.322  -4.228  1.00  0.00     0.025 C 
HETATM   15  C6          0      52.438  76.381  -5.057  1.00  0.00     0.004 C 
HETATM   16  C7          0      53.115  75.194  -5.313  1.00  0.00     0.026 C 
HETATM   17  C8          0      52.630  73.967  -4.873  1.00  0.00     0.112 C 
HETATM   18  C10         0      51.262  73.937  -4.633  1.00  0.00     0.112 C 
HETATM   19  C12         0      50.625  75.125  -4.295  1.00  0.00     0.028 C 
BRANCH  17  20
HETATM   20  O9          0      53.496  72.951  -4.510  1.00  0.00    -0.357 OA
HETATM   21  H9          0      53.218  72.059  -4.333  1.00  0.00     0.218 HD
ENDBRANCH  17  20
BRANCH  18  22
HETATM   22  O11         0      50.696  72.697  -4.375  1.00  0.00    -0.357 OA
HETATM   23  H11         0      50.005  72.667  -3.724  1.00  0.00     0.218 HD
ENDBRANCH  18  22
ENDBRANCH   4  14
BRANCH   8  24
HETATM   24  O17         0      50.498  83.017  -4.169  1.00  0.00    -0.359 OA
HETATM   25  H17         0      50.191  82.995  -5.067  1.00  0.00     0.218 HD
ENDBRANCH   8  24
TORSDOF 5
ENDMDL
MODEL 7
REMARK VINA RESULT:      -4.1      2.043      6.822
REMARK  5 active torsions:
REMARK  status: ('A' for Active; 'I' for Inactive)
REMARK    1  A    between atoms: C4_4  and  C5_5 
REMARK    2  A    between atoms: C8_8  and  O9_9 
REMARK    3  A    between atoms: C10_11  and  O11_12 
REMARK    4  A    between atoms: C16_18  and  O17_19 
REMARK    5  A    between atoms: C19_22  and  O20_23 
ROOT
HETATM    1  O1          0      54.642  82.841 -15.617  1.00  0.00    -0.286 OA
HETATM    2  C2          0      53.397  82.640 -15.628  1.00  0.00     0.201 C 
HETATM    3  C3          0      52.542  83.177 -14.680  1.00  0.00     0.067 C 
HETATM    4  C4          0      51.189  82.857 -14.655  1.00  0.00     0.103 C 
HETATM    5  O13         0      50.714  82.036 -15.574  1.00  0.00    -0.307 OA
HETATM    6  C14         0      51.489  81.469 -16.473  1.00  0.00     0.107 C 
HETATM    7  C15         0      51.096  80.332 -17.164  1.00  0.00     0.049 C 
HETATM    8  C16         0      52.003  79.595 -17.916  1.00  0.00     0.093 C 
HETATM    9  C18         0      53.109  80.306 -18.363  1.00  0.00     0.048 C 
HETATM   10  C19         0      53.503  81.474 -17.724  1.00  0.00     0.096 C 
HETATM   11  C21         0      52.785  81.938 -16.655  1.00  0.00     0.084 C 
ENDROOT
BRANCH  10  12
HETATM   12  O20         0      54.809  81.928 -17.879  1.00  0.00    -0.359 OA
HETATM   13  H20         0      55.504  81.433 -17.461  1.00  0.00     0.218 HD
ENDBRANCH  10  12
BRANCH   4  14
HETATM   14  C5          0      50.505  82.942 -13.363  1.00  0.00     0.025 C 
HETATM   15  C6          0      50.433  81.874 -12.480  1.00  0.00     0.004 C 
HETATM   16  C7          0      50.542  82.154 -11.121  1.00  0.00     0.026 C 
HETATM   17  C8          0      50.586  83.460 -10.647  1.00  0.00     0.112 C 
HETATM   18  C10         0      50.028  84.405 -11.497  1.00  0.00     0.112 C 
HETATM   19  C12         0      50.009  84.137 -12.860  1.00  0.00     0.028 C 
BRANCH  17  20
HETATM   20  O9          0      51.322  83.780  -9.519  1.00  0.00    -0.357 OA
HETATM   21  H9          0      52.100  84.325  -9.534  1.00  0.00     0.218 HD
ENDBRANCH  17  20
BRANCH  18  22
HETATM   22  O11         0      49.875  85.690 -10.995  1.00  0.00    -0.357 OA
HETATM   23  H11         0      50.666  86.143 -10.725  1.00  0.00     0.218 HD
ENDBRANCH  18  22
ENDBRANCH   4  14
BRANCH   8  24
HETATM   24  O17         0      51.974  78.196 -17.927  1.00  0.00    -0.359 OA
HETATM   25  H17         0      52.284  77.696 -18.673  1.00  0.00     0.218 HD
ENDBRANCH   8  24
TORSDOF 5
ENDMDL
MODEL 8
REMARK VINA RESULT:      -4.0      3.858      5.994
REMARK  5 active torsions:
REMARK  status: ('A' for Active; 'I' for Inactive)
REMARK    1  A    between atoms: C4_4  and  C5_5 
REMARK    2  A    between atoms: C8_8  and  O9_9 
REMARK    3  A    between atoms: C10_11  and  O11_12 
REMARK    4  A    between atoms: C16_18  and  O17_19 
REMARK    5  A    between atoms: C19_22  and  O20_23 
ROOT
HETATM    1  O1          0      56.200  79.165 -16.566  1.00  0.00    -0.286 OA
HETATM    2  C2          0      55.863  80.101 -17.341  1.00  0.00     0.201 C 
HETATM    3  C3          0      56.711  81.147 -17.667  1.00  0.00     0.067 C 
HETATM    4  C4          0      56.281  82.218 -18.442  1.00  0.00     0.103 C 
HETATM    5  O13         0      55.038  82.220 -18.889  1.00  0.00    -0.307 OA
HETATM    6  C14         0      54.182  81.272 -18.578  1.00  0.00     0.107 C 
HETATM    7  C15         0      52.812  81.456 -18.696  1.00  0.00     0.049 C 
HETATM    8  C16         0      51.912  80.560 -18.133  1.00  0.00     0.093 C 
HETATM    9  C18         0      52.405  79.274 -17.944  1.00  0.00     0.048 C 
HETATM   10  C19         0      53.772  79.047 -17.869  1.00  0.00     0.096 C 
HETATM   11  C21         0      54.642  80.095 -17.998  1.00  0.00     0.084 C 
ENDROOT
BRANCH  10  12
HETATM   12  O20         0      54.236  77.885 -17.260  1.00  0.00    -0.359 OA
HETATM   13  H20         0      53.786  77.580 -16.481  1.00  0.00     0.218 HD
ENDBRANCH  10  12
BRANCH   4  14
HETATM   14  C5          0      56.962  83.500 -18.248  1.00  0.00     0.025 C 
HETATM   15  C6          0      57.794  84.061 -19.206  1.00  0.00     0.004 C 
HETATM   16  C7          0      57.746  85.442 -19.373  1.00  0.00     0.026 C 
HETATM   17  C8          0      56.997  86.253 -18.527  1.00  0.00     0.112 C 
HETATM   18  C10         0      56.739  85.705 -17.277  1.00  0.00     0.112 C 
HETATM   19  C12         0      56.709  84.320 -17.157  1.00  0.00     0.028 C 
BRANCH  17  20
HETATM   20  O9          0      56.398  87.407 -18.998  1.00  0.00    -0.357 OA
HETATM   21  H9          0      55.995  87.480 -19.856  1.00  0.00     0.218 HD
ENDBRANCH  17  20
BRANCH  18  22
HETATM   22  O11         0      56.162  86.541 -16.332  1.00  0.00    -0.357 OA
HETATM   23  H11         0      56.750  87.095 -15.832  1.00  0.00     0.218 HD
ENDBRANCH  18  22
ENDBRANCH   4  14
BRANCH   8  24
HETATM   24  O17         0      50.741  80.999 -17.504  1.00  0.00    -0.359 OA
HETATM   25  H17         0      49.932  80.504 -17.554  1.00  0.00     0.218 HD
ENDBRANCH   8  24
TORSDOF 5
ENDMDL
MODEL 9
REMARK VINA RESULT:      -3.9      2.741      7.224
REMARK  5 active torsions:
REMARK  status: ('A' for Active; 'I' for Inactive)
REMARK    1  A    between atoms: C4_4  and  C5_5 
REMARK    2  A    between atoms: C8_8  and  O9_9 
REMARK    3  A    between atoms: C10_11  and  O11_12 
REMARK    4  A    between atoms: C16_18  and  O17_19 
REMARK    5  A    between atoms: C19_22  and  O20_23 
ROOT
HETATM    1  O1          0      56.713  82.694 -16.623  1.00  0.00    -0.286 OA
HETATM    2  C2          0      56.113  82.034 -17.516  1.00  0.00     0.201 C 
HETATM    3  C3          0      54.735  82.033 -17.651  1.00  0.00     0.067 C 
HETATM    4  C4          0      54.095  81.217 -18.576  1.00  0.00     0.103 C 
HETATM    5  O13         0      54.829  80.442 -19.355  1.00  0.00    -0.307 OA
HETATM    6  C14         0      56.138  80.377 -19.243  1.00  0.00     0.107 C 
HETATM    7  C15         0      56.863  79.310 -19.752  1.00  0.00     0.049 C 
HETATM    8  C16         0      58.197  79.117 -19.414  1.00  0.00     0.093 C 
HETATM    9  C18         0      58.874  80.264 -19.018  1.00  0.00     0.048 C 
HETATM   10  C19         0      58.176  81.368 -18.548  1.00  0.00     0.096 C 
HETATM   11  C21         0      56.810  81.333 -18.489  1.00  0.00     0.084 C 
ENDROOT
BRANCH  10  12
HETATM   12  O20         0      58.839  82.309 -17.766  1.00  0.00    -0.359 OA
HETATM   13  H20         0      59.751  82.149 -17.554  1.00  0.00     0.218 HD
ENDBRANCH  10  12
BRANCH   4  14
HETATM   14  C5          0      52.720  80.813 -18.274  1.00  0.00     0.025 C 
HETATM   15  C6          0      52.358  79.494 -18.043  1.00  0.00     0.004 C 
HETATM   16  C7          0      51.406  79.250 -17.058  1.00  0.00     0.026 C 
HETATM   17  C8          0      50.738  80.287 -16.417  1.00  0.00     0.112 C 
HETATM   18  C10         0      50.695  81.478 -17.130  1.00  0.00     0.112 C 
HETATM   19  C12         0      51.706  81.734 -18.048  1.00  0.00     0.028 C 
BRANCH  17  20
HETATM   20  O9          0      50.350  80.170 -15.094  1.00  0.00    -0.357 OA
HETATM   21  H9          0      50.886  79.768 -14.420  1.00  0.00     0.218 HD
ENDBRANCH  17  20
BRANCH  18  22
HETATM   22  O11         0      49.883  82.484 -16.626  1.00  0.00    -0.357 OA
HETATM   23  H11         0      49.220  82.226 -15.996  1.00  0.00     0.218 HD
ENDBRANCH  18  22
ENDBRANCH   4  14
BRANCH   8  24
HETATM   24  O17         0      58.709  77.838 -19.166  1.00  0.00    -0.359 OA
HETATM   25  H17         0      58.988  77.571 -18.298  1.00  0.00     0.218 HD
ENDBRANCH   8  24
TORSDOF 5
ENDMDL
