MODEL 1
REMARK VINA RESULT:      -8.3      0.000      0.000
REMARK  5 active torsions:
REMARK  status: ('A' for Active; 'I' for Inactive)
REMARK    1  A    between atoms: C4_4  and  C5_5 
REMARK    2  A    between atoms: C8_8  and  O9_9 
REMARK    3  A    between atoms: C10_11  and  O11_12 
REMARK    4  A    between atoms: C16_18  and  O17_19 
REMARK    5  A    between atoms: C19_22  and  O20_23 
ROOT
HETATM    1  O1          0      48.560  85.436  -9.888  1.00  0.00    -0.286 OA
HETATM    2  C2          0      47.483  85.986 -10.246  1.00  0.00     0.201 C 
HETATM    3  C3          0      46.751  85.563 -11.343  1.00  0.00     0.067 C 
HETATM    4  C4          0      45.623  86.250 -11.775  1.00  0.00     0.103 C 
HETATM    5  O13         0      45.236  87.320 -11.105  1.00  0.00    -0.307 OA
HETATM    6  C14         0      45.915  87.787 -10.080  1.00  0.00     0.107 C 
HETATM    7  C15         0      45.760  89.091  -9.633  1.00  0.00     0.049 C 
HETATM    8  C16         0      46.650  89.654  -8.727  1.00  0.00     0.093 C 
HETATM    9  C18         0      47.326  88.743  -7.924  1.00  0.00     0.048 C 
HETATM   10  C19         0      47.459  87.418  -8.319  1.00  0.00     0.096 C 
HETATM   11  C21         0      46.906  87.003  -9.500  1.00  0.00     0.084 C 
ENDROOT
BRANCH  10  12
HETATM   12  O20         0      48.470  86.641  -7.763  1.00  0.00    -0.359 OA
HETATM   13  H20         0      49.324  87.040  -7.644  1.00  0.00     0.218 HD
ENDBRANCH  10  12
BRANCH   4  14
HETATM   14  C5          0      45.277  86.143 -13.194  1.00  0.00     0.025 C 
HETATM   15  C6          0      45.752  85.126 -14.010  1.00  0.00     0.004 C 
HETATM   16  C7          0      44.881  84.601 -14.959  1.00  0.00     0.026 C 
HETATM   17  C8          0      43.626  85.156 -15.183  1.00  0.00     0.112 C 
HETATM   18  C10         0      43.504  86.487 -14.804  1.00  0.00     0.112 C 
HETATM   19  C12         0      44.330  86.963 -13.793  1.00  0.00     0.028 C 
BRANCH  17  20
HETATM   20  O9          0      42.555  84.362 -15.553  1.00  0.00    -0.357 OA
HETATM   21  H9          0      42.482  83.935 -16.399  1.00  0.00     0.218 HD
ENDBRANCH  17  20
BRANCH  18  22
HETATM   22  O11         0      42.339  87.142 -15.177  1.00  0.00    -0.357 OA
HETATM   23  H11         0      41.791  87.476 -14.476  1.00  0.00     0.218 HD
ENDBRANCH  18  22
ENDBRANCH   4  14
BRANCH   8  24
HETATM   24  O17         0      47.075  90.982  -8.851  1.00  0.00    -0.359 OA
HETATM   25  H17         0      46.542  91.707  -8.546  1.00  0.00     0.218 HD
ENDBRANCH   8  24
TORSDOF 5
ENDMDL
MODEL 2
REMARK VINA RESULT:      -7.3      1.724      7.065
REMARK  5 active torsions:
REMARK  status: ('A' for Active; 'I' for Inactive)
REMARK    1  A    between atoms: C4_4  and  C5_5 
REMARK    2  A    between atoms: C8_8  and  O9_9 
REMARK    3  A    between atoms: C10_11  and  O11_12 
REMARK    4  A    between atoms: C16_18  and  O17_19 
REMARK    5  A    between atoms: C19_22  and  O20_23 
ROOT
HETATM    1  O1          0      43.667  88.492 -13.358  1.00  0.00    -0.286 OA
HETATM    2  C2          0      44.433  87.816 -12.618  1.00  0.00     0.201 C 
HETATM    3  C3          0      44.874  88.264 -11.384  1.00  0.00     0.067 C 
HETATM    4  C4          0      45.798  87.545 -10.636  1.00  0.00     0.103 C 
HETATM    5  O13         0      46.246  86.397 -11.113  1.00  0.00    -0.307 OA
HETATM    6  C14         0      45.888  85.944 -12.295  1.00  0.00     0.107 C 
HETATM    7  C15         0      46.631  84.982 -12.964  1.00  0.00     0.049 C 
HETATM    8  C16         0      46.399  84.694 -14.304  1.00  0.00     0.093 C 
HETATM    9  C18         0      45.119  84.992 -14.755  1.00  0.00     0.048 C 
HETATM   10  C19         0      44.331  85.916 -14.082  1.00  0.00     0.096 C 
HETATM   11  C21         0      44.812  86.525 -12.955  1.00  0.00     0.084 C 
ENDROOT
BRANCH  10  12
HETATM   12  O20         0      43.273  86.523 -14.751  1.00  0.00    -0.359 OA
HETATM   13  H20         0      42.855  86.040 -15.454  1.00  0.00     0.218 HD
ENDBRANCH  10  12
BRANCH   4  14
HETATM   14  C5          0      46.644  88.301  -9.710  1.00  0.00     0.025 C 
HETATM   15  C6          0      46.437  89.643  -9.427  1.00  0.00     0.004 C 
HETATM   16  C7          0      46.640  90.065  -8.117  1.00  0.00     0.026 C 
HETATM   17  C8          0      47.161  89.213  -7.149  1.00  0.00     0.112 C 
HETATM   18  C10         0      47.904  88.152  -7.650  1.00  0.00     0.112 C 
HETATM   19  C12         0      47.622  87.695  -8.932  1.00  0.00     0.028 C 
BRANCH  17  20
HETATM   20  O9          0      46.772  89.322  -5.826  1.00  0.00    -0.357 OA
HETATM   21  H9          0      45.894  89.134  -5.516  1.00  0.00     0.218 HD
ENDBRANCH  17  20
BRANCH  18  22
HETATM   22  O11         0      48.601  87.384  -6.729  1.00  0.00    -0.357 OA
HETATM   23  H11         0      49.273  86.806  -7.071  1.00  0.00     0.218 HD
ENDBRANCH  18  22
ENDBRANCH   4  14
BRANCH   8  24
HETATM   24  O17         0      47.454  84.451 -15.190  1.00  0.00    -0.359 OA
HETATM   25  H17         0      48.231  84.998 -15.204  1.00  0.00     0.218 HD
ENDBRANCH   8  24
TORSDOF 5
ENDMDL
MODEL 3
REMARK VINA RESULT:      -7.1      1.936      3.494
REMARK  5 active torsions:
REMARK  status: ('A' for Active; 'I' for Inactive)
REMARK    1  A    between atoms: C4_4  and  C5_5 
REMARK    2  A    between atoms: C8_8  and  O9_9 
REMARK    3  A    between atoms: C10_11  and  O11_12 
REMARK    4  A    between atoms: C16_18  and  O17_19 
REMARK    5  A    between atoms: C19_22  and  O20_23 
ROOT
HETATM    1  O1          0      45.501  87.057  -9.288  1.00  0.00    -0.286 OA
HETATM    2  C2          0      46.047  86.384 -10.205  1.00  0.00     0.201 C 
HETATM    3  C3          0      45.834  86.637 -11.549  1.00  0.00     0.067 C 
HETATM    4  C4          0      46.366  85.818 -12.538  1.00  0.00     0.103 C 
HETATM    5  O13         0      47.108  84.786 -12.176  1.00  0.00    -0.307 OA
HETATM    6  C14         0      47.310  84.479 -10.914  1.00  0.00     0.107 C 
HETATM    7  C15         0      47.730  83.214 -10.527  1.00  0.00     0.049 C 
HETATM    8  C16         0      47.697  82.819  -9.195  1.00  0.00     0.093 C 
HETATM    9  C18         0      47.748  83.857  -8.273  1.00  0.00     0.048 C 
HETATM   10  C19         0      47.380  85.145  -8.639  1.00  0.00     0.096 C 
HETATM   11  C21         0      46.979  85.397  -9.923  1.00  0.00     0.084 C 
ENDROOT
BRANCH  10  12
HETATM   12  O20         0      47.017  86.055  -7.652  1.00  0.00    -0.359 OA
HETATM   13  H20         0      46.901  86.963  -7.904  1.00  0.00     0.218 HD
ENDBRANCH  10  12
BRANCH   4  14
HETATM   14  C5          0      45.652  85.759 -13.815  1.00  0.00     0.025 C 
HETATM   15  C6          0      45.799  84.710 -14.711  1.00  0.00     0.004 C 
HETATM   16  C7          0      44.664  84.280 -15.391  1.00  0.00     0.026 C 
HETATM   17  C8          0      43.452  84.953 -15.287  1.00  0.00     0.112 C 
HETATM   18  C10         0      43.559  86.285 -14.909  1.00  0.00     0.112 C 
HETATM   19  C12         0      44.662  86.671 -14.157  1.00  0.00     0.028 C 
BRANCH  17  20
HETATM   20  O9          0      42.252  84.267 -15.352  1.00  0.00    -0.357 OA
HETATM   21  H9          0      42.188  83.321 -15.421  1.00  0.00     0.218 HD
ENDBRANCH  17  20
BRANCH  18  22
HETATM   22  O11         0      42.404  87.051 -14.973  1.00  0.00    -0.357 OA
HETATM   23  H11         0      41.713  86.839 -14.356  1.00  0.00     0.218 HD
ENDBRANCH  18  22
ENDBRANCH   4  14
BRANCH   8  24
HETATM   24  O17         0      47.304  81.527  -8.828  1.00  0.00    -0.359 OA
HETATM   25  H17         0      46.847  81.358  -8.013  1.00  0.00     0.218 HD
ENDBRANCH   8  24
TORSDOF 5
ENDMDL
MODEL 4
REMARK VINA RESULT:      -6.6      2.977      4.724
REMARK  5 active torsions:
REMARK  status: ('A' for Active; 'I' for Inactive)
REMARK    1  A    between atoms: C4_4  and  C5_5 
REMARK    2  A    between atoms: C8_8  and  O9_9 
REMARK    3  A    between atoms: C10_11  and  O11_12 
REMARK    4  A    between atoms: C16_18  and  O17_19 
REMARK    5  A    between atoms: C19_22  and  O20_23 
ROOT
HETATM    1  O1          0      50.429  89.840  -9.833  1.00  0.00    -0.286 OA
HETATM    2  C2          0      49.194  90.098  -9.802  1.00  0.00     0.201 C 
HETATM    3  C3          0      48.224  89.116  -9.695  1.00  0.00     0.067 C 
HETATM    4  C4          0      46.869  89.419  -9.766  1.00  0.00     0.103 C 
HETATM    5  O13         0      46.508  90.681  -9.920  1.00  0.00    -0.307 OA
HETATM    6  C14         0      47.389  91.647 -10.064  1.00  0.00     0.107 C 
HETATM    7  C15         0      47.044  92.873 -10.614  1.00  0.00     0.049 C 
HETATM    8  C16         0      48.015  93.790 -10.999  1.00  0.00     0.093 C 
HETATM    9  C18         0      49.234  93.665 -10.342  1.00  0.00     0.048 C 
HETATM   10  C19         0      49.590  92.466  -9.740  1.00  0.00     0.096 C 
HETATM   11  C21         0      48.728  91.404  -9.779  1.00  0.00     0.084 C 
ENDROOT
BRANCH  10  12
HETATM   12  O20         0      50.933  92.206  -9.483  1.00  0.00    -0.359 OA
HETATM   13  H20         0      51.160  91.361  -9.116  1.00  0.00     0.218 HD
ENDBRANCH  10  12
BRANCH   4  14
HETATM   14  C5          0      45.972  88.366 -10.244  1.00  0.00     0.025 C 
HETATM   15  C6          0      45.021  88.579 -11.232  1.00  0.00     0.004 C 
HETATM   16  C7          0      44.811  87.560 -12.155  1.00  0.00     0.026 C 
HETATM   17  C8          0      45.425  86.319 -12.023  1.00  0.00     0.112 C 
HETATM   18  C10         0      45.819  86.001 -10.731  1.00  0.00     0.112 C 
HETATM   19  C12         0      46.105  87.040  -9.853  1.00  0.00     0.028 C 
BRANCH  17  20
HETATM   20  O9          0      45.788  85.586 -13.139  1.00  0.00    -0.357 OA
HETATM   21  H9          0      45.239  84.919 -13.534  1.00  0.00     0.218 HD
ENDBRANCH  17  20
BRANCH  18  22
HETATM   22  O11         0      46.263  84.705 -10.510  1.00  0.00    -0.357 OA
HETATM   23  H11         0      45.612  84.068 -10.236  1.00  0.00     0.218 HD
ENDBRANCH  18  22
ENDBRANCH   4  14
BRANCH   8  24
HETATM   24  O17         0      47.885  94.541 -12.173  1.00  0.00    -0.359 OA
HETATM   25  H17         0      47.264  94.303 -12.851  1.00  0.00     0.218 HD
ENDBRANCH   8  24
TORSDOF 5
ENDMDL
MODEL 5
REMARK VINA RESULT:      -6.4      2.290      3.782
REMARK  5 active torsions:
REMARK  status: ('A' for Active; 'I' for Inactive)
REMARK    1  A    between atoms: C4_4  and  C5_5 
REMARK    2  A    between atoms: C8_8  and  O9_9 
REMARK    3  A    between atoms: C10_11  and  O11_12 
REMARK    4  A    between atoms: C16_18  and  O17_19 
REMARK    5  A    between atoms: C19_22  and  O20_23 
ROOT
HETATM    1  O1          0      47.904  88.753  -7.630  1.00  0.00    -0.286 OA
HETATM    2  C2          0      47.215  88.784  -8.687  1.00  0.00     0.201 C 
HETATM    3  C3          0      46.624  87.655  -9.230  1.00  0.00     0.067 C 
HETATM    4  C4          0      45.957  87.698 -10.449  1.00  0.00     0.103 C 
HETATM    5  O13         0      45.873  88.852 -11.086  1.00  0.00    -0.307 OA
HETATM    6  C14         0      46.448  89.944 -10.634  1.00  0.00     0.107 C 
HETATM    7  C15         0      46.708  91.029 -11.459  1.00  0.00     0.049 C 
HETATM    8  C16         0      47.535  92.067 -11.046  1.00  0.00     0.093 C 
HETATM    9  C18         0      47.632  92.229  -9.670  1.00  0.00     0.048 C 
HETATM   10  C19         0      47.333  91.178  -8.813  1.00  0.00     0.096 C 
HETATM   11  C21         0      46.924  89.978  -9.328  1.00  0.00     0.084 C 
ENDROOT
BRANCH  10  12
HETATM   12  O20         0      47.836  91.194  -7.516  1.00  0.00    -0.359 OA
HETATM   13  H20         0      47.739  91.993  -7.011  1.00  0.00     0.218 HD
ENDBRANCH  10  12
BRANCH   4  14
HETATM   14  C5          0      45.901  86.458 -11.225  1.00  0.00     0.025 C 
HETATM   15  C6          0      45.200  86.348 -12.417  1.00  0.00     0.004 C 
HETATM   16  C7          0      45.769  85.583 -13.431  1.00  0.00     0.026 C 
HETATM   17  C8          0      46.927  84.841 -13.223  1.00  0.00     0.112 C 
HETATM   18  C10         0      47.175  84.514 -11.896  1.00  0.00     0.112 C 
HETATM   19  C12         0      46.666  85.344 -10.905  1.00  0.00     0.028 C 
BRANCH  17  20
HETATM   20  O9          0      47.839  84.650 -14.245  1.00  0.00    -0.357 OA
HETATM   21  H9          0      47.711  84.964 -15.133  1.00  0.00     0.218 HD
ENDBRANCH  17  20
BRANCH  18  22
HETATM   22  O11         0      48.208  83.620 -11.653  1.00  0.00    -0.357 OA
HETATM   23  H11         0      49.052  83.991 -11.421  1.00  0.00     0.218 HD
ENDBRANCH  18  22
ENDBRANCH   4  14
BRANCH   8  24
HETATM   24  O17         0      48.446  92.666 -11.924  1.00  0.00    -0.359 OA
HETATM   25  H17         0      49.382  92.530 -11.840  1.00  0.00     0.218 HD
ENDBRANCH   8  24
TORSDOF 5
ENDMDL
MODEL 6
REMARK VINA RESULT:      -6.3      2.380      7.082
REMARK  5 active torsions:
REMARK  status: ('A' for Active; 'I' for Inactive)
REMARK    1  A    between atoms: C4_4  and  C5_5 
REMARK    2  A    between atoms: C8_8  and  O9_9 
REMARK    3  A    between atoms: C10_11  and  O11_12 
REMARK    4  A    between atoms: C16_18  and  O17_19 
REMARK    5  A    between atoms: C19_22  and  O20_23 
ROOT
HETATM    1  O1          0      44.721  88.230 -12.270  1.00  0.00    -0.286 OA
HETATM    2  C2          0      45.413  88.055 -11.230  1.00  0.00     0.201 C 
HETATM    3  C3          0      45.498  88.996 -10.218  1.00  0.00     0.067 C 
HETATM    4  C4          0      46.348  88.823  -9.131  1.00  0.00     0.103 C 
HETATM    5  O13         0      47.073  87.721  -9.062  1.00  0.00    -0.307 OA
HETATM    6  C14         0      47.058  86.814 -10.013  1.00  0.00     0.107 C 
HETATM    7  C15         0      48.077  85.882 -10.151  1.00  0.00     0.049 C 
HETATM    8  C16         0      48.190  85.099 -11.294  1.00  0.00     0.093 C 
HETATM    9  C18         0      47.005  84.910 -11.994  1.00  0.00     0.048 C 
HETATM   10  C19         0      45.947  85.797 -11.845  1.00  0.00     0.096 C 
HETATM   11  C21         0      46.066  86.857 -10.987  1.00  0.00     0.084 C 
ENDROOT
BRANCH  10  12
HETATM   12  O20         0      44.971  85.864 -12.833  1.00  0.00    -0.359 OA
HETATM   13  H20         0      44.753  86.718 -13.186  1.00  0.00     0.218 HD
ENDBRANCH  10  12
BRANCH   4  14
HETATM   14  C5          0      46.836  90.032  -8.464  1.00  0.00     0.025 C 
HETATM   15  C6          0      47.050  90.100  -7.095  1.00  0.00     0.004 C 
HETATM   16  C7          0      48.155  90.818  -6.650  1.00  0.00     0.026 C 
HETATM   17  C8          0      48.947  91.555  -7.525  1.00  0.00     0.112 C 
HETATM   18  C10         0      48.313  91.933  -8.701  1.00  0.00     0.112 C 
HETATM   19  C12         0      47.265  91.149  -9.168  1.00  0.00     0.028 C 
BRANCH  17  20
HETATM   20  O9          0      50.305  91.695  -7.305  1.00  0.00    -0.357 OA
HETATM   21  H9          0      50.757  91.339  -6.549  1.00  0.00     0.218 HD
ENDBRANCH  17  20
BRANCH  18  22
HETATM   22  O11         0      48.990  92.825  -9.521  1.00  0.00    -0.357 OA
HETATM   23  H11         0      49.487  93.512  -9.091  1.00  0.00     0.218 HD
ENDBRANCH  18  22
ENDBRANCH   4  14
BRANCH   8  24
HETATM   24  O17         0      49.436  84.818 -11.865  1.00  0.00    -0.359 OA
HETATM   25  H17         0      49.968  85.498 -12.261  1.00  0.00     0.218 HD
ENDBRANCH   8  24
TORSDOF 5
ENDMDL
MODEL 7
REMARK VINA RESULT:      -6.2      6.305     11.128
REMARK  5 active torsions:
REMARK  status: ('A' for Active; 'I' for Inactive)
REMARK    1  A    between atoms: C4_4  and  C5_5 
REMARK    2  A    between atoms: C8_8  and  O9_9 
REMARK    3  A    between atoms: C10_11  and  O11_12 
REMARK    4  A    between atoms: C16_18  and  O17_19 
REMARK    5  A    between atoms: C19_22  and  O20_23 
ROOT
HETATM    1  O1          0      50.001  88.483  -3.063  1.00  0.00    -0.286 OA
HETATM    2  C2          0      49.503  89.563  -3.483  1.00  0.00     0.201 C 
HETATM    3  C3          0      49.250  90.645  -2.657  1.00  0.00     0.067 C 
HETATM    4  C4          0      48.608  91.785  -3.125  1.00  0.00     0.103 C 
HETATM    5  O13         0      48.251  91.836  -4.396  1.00  0.00    -0.307 OA
HETATM    6  C14         0      48.434  90.823  -5.215  1.00  0.00     0.107 C 
HETATM    7  C15         0      47.726  90.706  -6.402  1.00  0.00     0.049 C 
HETATM    8  C16         0      47.732  89.524  -7.132  1.00  0.00     0.093 C 
HETATM    9  C18         0      48.840  88.711  -6.925  1.00  0.00     0.048 C 
HETATM   10  C19         0      49.598  88.834  -5.769  1.00  0.00     0.096 C 
HETATM   11  C21         0      49.262  89.773  -4.833  1.00  0.00     0.084 C 
ENDROOT
BRANCH  10  12
HETATM   12  O20         0      50.403  87.772  -5.367  1.00  0.00    -0.359 OA
HETATM   13  H20         0      50.160  86.898  -5.648  1.00  0.00     0.218 HD
ENDBRANCH  10  12
BRANCH   4  14
HETATM   14  C5          0      47.857  92.578  -2.150  1.00  0.00     0.025 C 
HETATM   15  C6          0      48.366  92.919  -0.905  1.00  0.00     0.004 C 
HETATM   16  C7          0      48.075  94.188  -0.415  1.00  0.00     0.026 C 
HETATM   17  C8          0      47.197  95.041  -1.075  1.00  0.00     0.112 C 
HETATM   18  C10         0      46.288  94.405  -1.910  1.00  0.00     0.112 C 
HETATM   19  C12         0      46.641  93.176  -2.455  1.00  0.00     0.028 C 
BRANCH  17  20
HETATM   20  O9          0      47.382  96.412  -1.043  1.00  0.00    -0.357 OA
HETATM   21  H9          0      46.670  97.041  -1.049  1.00  0.00     0.218 HD
ENDBRANCH  17  20
BRANCH  18  22
HETATM   22  O11         0      45.273  95.185  -2.444  1.00  0.00    -0.357 OA
HETATM   23  H11         0      45.524  95.833  -3.092  1.00  0.00     0.218 HD
ENDBRANCH  18  22
ENDBRANCH   4  14
BRANCH   8  24
HETATM   24  O17         0      46.572  89.043  -7.750  1.00  0.00    -0.359 OA
HETATM   25  H17         0      45.960  89.625  -8.185  1.00  0.00     0.218 HD
ENDBRANCH   8  24
TORSDOF 5
ENDMDL
MODEL 8
REMARK VINA RESULT:      -6.2      3.989      8.094
REMARK  5 active torsions:
REMARK  status: ('A' for Active; 'I' for Inactive)
REMARK    1  A    between atoms: C4_4  and  C5_5 
REMARK    2  A    between atoms: C8_8  and  O9_9 
REMARK    3  A    between atoms: C10_11  and  O11_12 
REMARK    4  A    between atoms: C16_18  and  O17_19 
REMARK    5  A    between atoms: C19_22  and  O20_23 
ROOT
HETATM    1  O1          0      45.764  85.913 -10.066  1.00  0.00    -0.286 OA
HETATM    2  C2          0      46.618  84.994  -9.937  1.00  0.00     0.201 C 
HETATM    3  C3          0      46.964  84.458  -8.708  1.00  0.00     0.067 C 
HETATM    4  C4          0      47.981  83.519  -8.583  1.00  0.00     0.103 C 
HETATM    5  O13         0      48.612  83.118  -9.673  1.00  0.00    -0.307 OA
HETATM    6  C14         0      48.348  83.622 -10.859  1.00  0.00     0.107 C 
HETATM    7  C15         0      49.244  83.517 -11.913  1.00  0.00     0.049 C 
HETATM    8  C16         0      49.080  84.261 -13.076  1.00  0.00     0.093 C 
HETATM    9  C18         0      47.775  84.661 -13.337  1.00  0.00     0.048 C 
HETATM   10  C19         0      46.840  84.732 -12.313  1.00  0.00     0.096 C 
HETATM   11  C21         0      47.202  84.388 -11.039  1.00  0.00     0.084 C 
ENDROOT
BRANCH  10  12
HETATM   12  O20         0      45.708  85.524 -12.479  1.00  0.00    -0.359 OA
HETATM   13  H20         0      45.702  86.147 -13.194  1.00  0.00     0.218 HD
ENDBRANCH  10  12
BRANCH   4  14
HETATM   14  C5          0      48.682  83.457  -7.300  1.00  0.00     0.025 C 
HETATM   15  C6          0      48.369  84.284  -6.231  1.00  0.00     0.004 C 
HETATM   16  C7          0      48.413  83.732  -4.954  1.00  0.00     0.026 C 
HETATM   17  C8          0      48.882  82.442  -4.733  1.00  0.00     0.112 C 
HETATM   18  C10         0      49.733  81.958  -5.718  1.00  0.00     0.112 C 
HETATM   19  C12         0      49.610  82.466  -7.005  1.00  0.00     0.028 C 
BRANCH  17  20
HETATM   20  O9          0      48.356  81.660  -3.720  1.00  0.00    -0.357 OA
HETATM   21  H9          0      47.666  81.019  -3.852  1.00  0.00     0.218 HD
ENDBRANCH  17  20
BRANCH  18  22
HETATM   22  O11         0      50.377  80.757  -5.456  1.00  0.00    -0.357 OA
HETATM   23  H11         0      51.298  80.804  -5.226  1.00  0.00     0.218 HD
ENDBRANCH  18  22
ENDBRANCH   4  14
BRANCH   8  24
HETATM   24  O17         0      50.172  84.838 -13.732  1.00  0.00    -0.359 OA
HETATM   25  H17         0      50.825  84.309 -14.174  1.00  0.00     0.218 HD
ENDBRANCH   8  24
TORSDOF 5
ENDMDL
MODEL 9
REMARK VINA RESULT:      -6.0      6.192      9.819
REMARK  5 active torsions:
REMARK  status: ('A' for Active; 'I' for Inactive)
REMARK    1  A    between atoms: C4_4  and  C5_5 
REMARK    2  A    between atoms: C8_8  and  O9_9 
REMARK    3  A    between atoms: C10_11  and  O11_12 
REMARK    4  A    between atoms: C16_18  and  O17_19 
REMARK    5  A    between atoms: C19_22  and  O20_23 
ROOT
HETATM    1  O1          0      50.670  94.658  -3.290  1.00  0.00    -0.286 OA
HETATM    2  C2          0      49.760  93.783  -3.304  1.00  0.00     0.201 C 
HETATM    3  C3          0      49.840  92.630  -4.066  1.00  0.00     0.067 C 
HETATM    4  C4          0      48.781  91.733  -4.143  1.00  0.00     0.103 C 
HETATM    5  O13         0      47.683  91.987  -3.454  1.00  0.00    -0.307 OA
HETATM    6  C14         0      47.540  93.086  -2.745  1.00  0.00     0.107 C 
HETATM    7  C15         0      46.291  93.550  -2.359  1.00  0.00     0.049 C 
HETATM    8  C16         0      46.125  94.828  -1.839  1.00  0.00     0.093 C 
HETATM    9  C18         0      47.259  95.373  -1.248  1.00  0.00     0.048 C 
HETATM   10  C19         0      48.522  94.900  -1.577  1.00  0.00     0.096 C 
HETATM   11  C21         0      48.651  93.878  -2.477  1.00  0.00     0.084 C 
ENDROOT
BRANCH  10  12
HETATM   12  O20         0      49.632  95.704  -1.339  1.00  0.00    -0.359 OA
HETATM   13  H20         0      49.484  96.580  -1.002  1.00  0.00     0.218 HD
ENDBRANCH  10  12
BRANCH   4  14
HETATM   14  C5          0      48.679  90.919  -5.356  1.00  0.00     0.025 C 
HETATM   15  C6          0      48.369  89.567  -5.331  1.00  0.00     0.004 C 
HETATM   16  C7          0      47.543  89.077  -6.337  1.00  0.00     0.026 C 
HETATM   17  C8          0      47.147  89.871  -7.408  1.00  0.00     0.112 C 
HETATM   18  C10         0      47.986  90.946  -7.674  1.00  0.00     0.112 C 
HETATM   19  C12         0      48.737  91.471  -6.629  1.00  0.00     0.028 C 
BRANCH  17  20
HETATM   20  O9          0      45.907  89.700  -7.997  1.00  0.00    -0.357 OA
HETATM   21  H9          0      45.397  90.410  -8.369  1.00  0.00     0.218 HD
ENDBRANCH  17  20
BRANCH  18  22
HETATM   22  O11         0      47.745  91.657  -8.841  1.00  0.00    -0.357 OA
HETATM   23  H11         0      48.504  91.976  -9.314  1.00  0.00     0.218 HD
ENDBRANCH  18  22
ENDBRANCH   4  14
BRANCH   8  24
HETATM   24  O17         0      45.023  95.617  -2.183  1.00  0.00    -0.359 OA
HETATM   25  H17         0      44.452  95.389  -2.907  1.00  0.00     0.218 HD
ENDBRANCH   8  24
TORSDOF 5
ENDMDL
