MODEL 1
REMARK VINA RESULT:      -6.5      0.000      0.000
REMARK  5 active torsions:
REMARK  status: ('A' for Active; 'I' for Inactive)
REMARK    1  A    between atoms: C4_4  and  C5_5 
REMARK    2  A    between atoms: C8_8  and  O9_9 
REMARK    3  A    between atoms: C10_11  and  O11_12 
REMARK    4  A    between atoms: C16_18  and  O17_19 
REMARK    5  A    between atoms: C19_22  and  O20_23 
ROOT
HETATM    1  O1          0      24.674  17.545  14.445  1.00  0.00    -0.286 OA
HETATM    2  C2          0      24.200  18.319  15.321  1.00  0.00     0.201 C 
HETATM    3  C3          0      23.195  19.233  15.051  1.00  0.00     0.067 C 
HETATM    4  C4          0      22.762  20.145  16.007  1.00  0.00     0.103 C 
HETATM    5  O13         0      23.316  20.117  17.206  1.00  0.00    -0.307 OA
HETATM    6  C14         0      24.299  19.296  17.504  1.00  0.00     0.107 C 
HETATM    7  C15         0      25.137  19.521  18.586  1.00  0.00     0.049 C 
HETATM    8  C16         0      26.316  18.804  18.747  1.00  0.00     0.093 C 
HETATM    9  C18         0      26.337  17.561  18.126  1.00  0.00     0.048 C 
HETATM   10  C19         0      25.478  17.285  17.070  1.00  0.00     0.096 C 
HETATM   11  C21         0      24.594  18.240  16.648  1.00  0.00     0.084 C 
ENDROOT
BRANCH  10  12
HETATM   12  O20         0      25.788  16.250  16.194  1.00  0.00    -0.359 OA
HETATM   13  H20         0      25.494  15.375  16.418  1.00  0.00     0.218 HD
ENDBRANCH  10  12
BRANCH   4  14
HETATM   14  C5          0      22.192  21.403  15.522  1.00  0.00     0.025 C 
HETATM   15  C6          0      21.653  22.360  16.370  1.00  0.00     0.004 C 
HETATM   16  C7          0      21.880  23.697  16.059  1.00  0.00     0.026 C 
HETATM   17  C8          0      22.504  24.075  14.875  1.00  0.00     0.112 C 
HETATM   18  C10         0      22.423  23.139  13.853  1.00  0.00     0.112 C 
HETATM   19  C12         0      22.282  21.799  14.194  1.00  0.00     0.028 C 
BRANCH  17  20
HETATM   20  O9          0      23.309  25.199  14.826  1.00  0.00    -0.357 OA
HETATM   21  H9          0      23.745  25.502  14.038  1.00  0.00     0.218 HD
ENDBRANCH  17  20
BRANCH  18  22
HETATM   22  O11         0      22.861  23.539  12.599  1.00  0.00    -0.357 OA
HETATM   23  H11         0      22.427  24.290  12.211  1.00  0.00     0.218 HD
ENDBRANCH  18  22
ENDBRANCH   4  14
BRANCH   8  24
HETATM   24  O17         0      27.489  19.420  19.199  1.00  0.00    -0.359 OA
HETATM   25  H17         0      27.502  19.951  19.986  1.00  0.00     0.218 HD
ENDBRANCH   8  24
TORSDOF 5
ENDMDL
MODEL 2
REMARK VINA RESULT:      -6.1      1.541      6.595
REMARK  5 active torsions:
REMARK  status: ('A' for Active; 'I' for Inactive)
REMARK    1  A    between atoms: C4_4  and  C5_5 
REMARK    2  A    between atoms: C8_8  and  O9_9 
REMARK    3  A    between atoms: C10_11  and  O11_12 
REMARK    4  A    between atoms: C16_18  and  O17_19 
REMARK    5  A    between atoms: C19_22  and  O20_23 
ROOT
HETATM    1  O1          0      24.218  23.393  18.246  1.00  0.00    -0.286 OA
HETATM    2  C2          0      23.578  22.557  17.552  1.00  0.00     0.201 C 
HETATM    3  C3          0      23.548  21.204  17.846  1.00  0.00     0.067 C 
HETATM    4  C4          0      22.920  20.290  17.007  1.00  0.00     0.103 C 
HETATM    5  O13         0      22.322  20.736  15.916  1.00  0.00    -0.307 OA
HETATM    6  C14         0      22.353  22.005  15.571  1.00  0.00     0.107 C 
HETATM    7  C15         0      22.093  22.416  14.272  1.00  0.00     0.049 C 
HETATM    8  C16         0      22.373  23.712  13.855  1.00  0.00     0.093 C 
HETATM    9  C18         0      22.401  24.661  14.869  1.00  0.00     0.048 C 
HETATM   10  C19         0      22.612  24.280  16.187  1.00  0.00     0.096 C 
HETATM   11  C21         0      22.777  22.956  16.493  1.00  0.00     0.084 C 
ENDROOT
BRANCH  10  12
HETATM   12  O20         0      23.067  25.223  17.104  1.00  0.00    -0.359 OA
HETATM   13  H20         0      23.451  24.907  17.913  1.00  0.00     0.218 HD
ENDBRANCH  10  12
BRANCH   4  14
HETATM   14  C5          0      23.416  18.913  17.026  1.00  0.00     0.025 C 
HETATM   15  C6          0      22.836  17.895  16.283  1.00  0.00     0.004 C 
HETATM   16  C7          0      23.684  16.955  15.705  1.00  0.00     0.026 C 
HETATM   17  C8          0      25.050  16.948  15.967  1.00  0.00     0.112 C 
HETATM   18  C10         0      25.416  17.558  17.159  1.00  0.00     0.112 C 
HETATM   19  C12         0      24.593  18.554  17.670  1.00  0.00     0.028 C 
BRANCH  17  20
HETATM   20  O9          0      25.955  16.549  14.999  1.00  0.00    -0.357 OA
HETATM   21  H9          0      25.919  16.835  14.093  1.00  0.00     0.218 HD
ENDBRANCH  17  20
BRANCH  18  22
HETATM   22  O11         0      26.737  17.414  17.559  1.00  0.00    -0.357 OA
HETATM   23  H11         0      27.201  16.648  17.243  1.00  0.00     0.218 HD
ENDBRANCH  18  22
ENDBRANCH   4  14
BRANCH   8  24
HETATM   24  O17         0      22.912  23.970  12.590  1.00  0.00    -0.359 OA
HETATM   25  H17         0      22.542  23.588  11.802  1.00  0.00     0.218 HD
ENDBRANCH   8  24
TORSDOF 5
ENDMDL
MODEL 3
REMARK VINA RESULT:      -5.8      2.347      6.369
REMARK  5 active torsions:
REMARK  status: ('A' for Active; 'I' for Inactive)
REMARK    1  A    between atoms: C4_4  and  C5_5 
REMARK    2  A    between atoms: C8_8  and  O9_9 
REMARK    3  A    between atoms: C10_11  and  O11_12 
REMARK    4  A    between atoms: C16_18  and  O17_19 
REMARK    5  A    between atoms: C19_22  and  O20_23 
ROOT
HETATM    1  O1          0      24.052  22.985  18.131  1.00  0.00    -0.286 OA
HETATM    2  C2          0      23.313  22.557  17.202  1.00  0.00     0.201 C 
HETATM    3  C3          0      22.926  21.231  17.102  1.00  0.00     0.067 C 
HETATM    4  C4          0      22.197  20.765  16.014  1.00  0.00     0.103 C 
HETATM    5  O13         0      21.853  21.621  15.067  1.00  0.00    -0.307 OA
HETATM    6  C14         0      22.226  22.881  15.095  1.00  0.00     0.107 C 
HETATM    7  C15         0      22.223  23.670  13.953  1.00  0.00     0.049 C 
HETATM    8  C16         0      22.851  24.909  13.930  1.00  0.00     0.093 C 
HETATM    9  C18         0      22.990  25.520  15.171  1.00  0.00     0.048 C 
HETATM   10  C19         0      22.951  24.767  16.336  1.00  0.00     0.096 C 
HETATM   11  C21         0      22.758  23.414  16.264  1.00  0.00     0.084 C 
ENDROOT
BRANCH  10  12
HETATM   12  O20         0      23.512  25.285  17.500  1.00  0.00    -0.359 OA
HETATM   13  H20         0      24.452  25.215  17.610  1.00  0.00     0.218 HD
ENDBRANCH  10  12
BRANCH   4  14
HETATM   14  C5          0      22.343  19.351  15.666  1.00  0.00     0.025 C 
HETATM   15  C6          0      21.274  18.559  15.272  1.00  0.00     0.004 C 
HETATM   16  C7          0      21.500  17.625  14.266  1.00  0.00     0.026 C 
HETATM   17  C8          0      22.774  17.391  13.761  1.00  0.00     0.112 C 
HETATM   18  C10         0      23.810  17.737  14.619  1.00  0.00     0.112 C 
HETATM   19  C12         0      23.583  18.734  15.560  1.00  0.00     0.028 C 
BRANCH  17  20
HETATM   20  O9          0      22.958  17.043  12.435  1.00  0.00    -0.357 OA
HETATM   21  H9          0      23.527  17.517  11.839  1.00  0.00     0.218 HD
ENDBRANCH  17  20
BRANCH  18  22
HETATM   22  O11         0      25.090  17.352  14.246  1.00  0.00    -0.357 OA
HETATM   23  H11         0      25.482  16.635  14.731  1.00  0.00     0.218 HD
ENDBRANCH  18  22
ENDBRANCH   4  14
BRANCH   8  24
HETATM   24  O17         0      23.577  25.338  12.813  1.00  0.00    -0.359 OA
HETATM   25  H17         0      23.225  25.271  11.934  1.00  0.00     0.218 HD
ENDBRANCH   8  24
TORSDOF 5
ENDMDL
MODEL 4
REMARK VINA RESULT:      -5.6     10.644     13.572
REMARK  5 active torsions:
REMARK  status: ('A' for Active; 'I' for Inactive)
REMARK    1  A    between atoms: C4_4  and  C5_5 
REMARK    2  A    between atoms: C8_8  and  O9_9 
REMARK    3  A    between atoms: C10_11  and  O11_12 
REMARK    4  A    between atoms: C16_18  and  O17_19 
REMARK    5  A    between atoms: C19_22  and  O20_23 
ROOT
HETATM    1  O1          0      26.331  23.815   4.996  1.00  0.00    -0.286 OA
HETATM    2  C2          0      26.284  22.621   4.590  1.00  0.00     0.201 C 
HETATM    3  C3          0      25.780  21.586   5.359  1.00  0.00     0.067 C 
HETATM    4  C4          0      25.833  20.266   4.927  1.00  0.00     0.103 C 
HETATM    5  O13         0      26.361  20.005   3.744  1.00  0.00    -0.307 OA
HETATM    6  C14         0      26.887  20.946   2.991  1.00  0.00     0.107 C 
HETATM    7  C15         0      27.777  20.651   1.968  1.00  0.00     0.049 C 
HETATM    8  C16         0      28.520  21.649   1.348  1.00  0.00     0.093 C 
HETATM    9  C18         0      27.963  22.920   1.411  1.00  0.00     0.048 C 
HETATM   10  C19         0      27.033  23.235   2.393  1.00  0.00     0.096 C 
HETATM   11  C21         0      26.650  22.282   3.296  1.00  0.00     0.084 C 
ENDROOT
BRANCH  10  12
HETATM   12  O20         0      26.818  24.570   2.723  1.00  0.00    -0.359 OA
HETATM   13  H20         0      27.530  25.048   3.130  1.00  0.00     0.218 HD
ENDBRANCH  10  12
BRANCH   4  14
HETATM   14  C5          0      25.864  19.225   5.957  1.00  0.00     0.025 C 
HETATM   15  C6          0      24.744  18.489   6.315  1.00  0.00     0.004 C 
HETATM   16  C7          0      24.924  17.139   6.601  1.00  0.00     0.026 C 
HETATM   17  C8          0      26.191  16.569   6.661  1.00  0.00     0.112 C 
HETATM   18  C10         0      27.219  17.467   6.919  1.00  0.00     0.112 C 
HETATM   19  C12         0      27.046  18.794   6.545  1.00  0.00     0.028 C 
BRANCH  17  20
HETATM   20  O9          0      26.397  15.256   6.279  1.00  0.00    -0.357 OA
HETATM   21  H9          0      27.131  14.729   6.573  1.00  0.00     0.218 HD
ENDBRANCH  17  20
BRANCH  18  22
HETATM   22  O11         0      28.473  16.930   7.176  1.00  0.00    -0.357 OA
HETATM   23  H11         0      29.220  17.388   6.809  1.00  0.00     0.218 HD
ENDBRANCH  18  22
ENDBRANCH   4  14
BRANCH   8  24
HETATM   24  O17         0      29.860  21.449   0.997  1.00  0.00    -0.359 OA
HETATM   25  H17         0      30.393  22.151   0.645  1.00  0.00     0.218 HD
ENDBRANCH   8  24
TORSDOF 5
ENDMDL
MODEL 5
REMARK VINA RESULT:      -5.6     10.097     12.753
REMARK  5 active torsions:
REMARK  status: ('A' for Active; 'I' for Inactive)
REMARK    1  A    between atoms: C4_4  and  C5_5 
REMARK    2  A    between atoms: C8_8  and  O9_9 
REMARK    3  A    between atoms: C10_11  and  O11_12 
REMARK    4  A    between atoms: C16_18  and  O17_19 
REMARK    5  A    between atoms: C19_22  and  O20_23 
ROOT
HETATM    1  O1          0      25.401  23.673   5.106  1.00  0.00    -0.286 OA
HETATM    2  C2          0      25.380  22.543   4.546  1.00  0.00     0.201 C 
HETATM    3  C3          0      24.375  21.616   4.764  1.00  0.00     0.067 C 
HETATM    4  C4          0      24.429  20.340   4.216  1.00  0.00     0.103 C 
HETATM    5  O13         0      25.460  20.020   3.453  1.00  0.00    -0.307 OA
HETATM    6  C14         0      26.459  20.848   3.245  1.00  0.00     0.107 C 
HETATM    7  C15         0      27.696  20.405   2.800  1.00  0.00     0.049 C 
HETATM    8  C16         0      28.812  21.232   2.825  1.00  0.00     0.093 C 
HETATM    9  C18         0      28.534  22.594   2.795  1.00  0.00     0.048 C 
HETATM   10  C19         0      27.290  23.068   3.189  1.00  0.00     0.096 C 
HETATM   11  C21         0      26.324  22.188   3.595  1.00  0.00     0.084 C 
ENDROOT
BRANCH  10  12
HETATM   12  O20         0      27.160  24.400   3.570  1.00  0.00    -0.359 OA
HETATM   13  H20         0      26.932  24.585   4.474  1.00  0.00     0.218 HD
ENDBRANCH  10  12
BRANCH   4  14
HETATM   14  C5          0      23.721  19.274   4.928  1.00  0.00     0.025 C 
HETATM   15  C6          0      24.220  17.984   5.039  1.00  0.00     0.004 C 
HETATM   16  C7          0      24.027  17.321   6.246  1.00  0.00     0.026 C 
HETATM   17  C8          0      23.250  17.866   7.262  1.00  0.00     0.112 C 
HETATM   18  C10         0      22.315  18.801   6.839  1.00  0.00     0.112 C 
HETATM   19  C12         0      22.573  19.512   5.673  1.00  0.00     0.028 C 
BRANCH  17  20
HETATM   20  O9          0      23.555  17.632   8.592  1.00  0.00    -0.357 OA
HETATM   21  H9          0      24.441  17.530   8.920  1.00  0.00     0.218 HD
ENDBRANCH  17  20
BRANCH  18  22
HETATM   22  O11         0      21.390  19.235   7.778  1.00  0.00    -0.357 OA
HETATM   23  H11         0      21.693  19.866   8.421  1.00  0.00     0.218 HD
ENDBRANCH  18  22
ENDBRANCH   4  14
BRANCH   8  24
HETATM   24  O17         0      30.072  20.747   3.193  1.00  0.00    -0.359 OA
HETATM   25  H17         0      30.173  20.063   3.844  1.00  0.00     0.218 HD
ENDBRANCH   8  24
TORSDOF 5
ENDMDL
MODEL 6
REMARK VINA RESULT:      -5.4     10.343     12.883
REMARK  5 active torsions:
REMARK  status: ('A' for Active; 'I' for Inactive)
REMARK    1  A    between atoms: C4_4  and  C5_5 
REMARK    2  A    between atoms: C8_8  and  O9_9 
REMARK    3  A    between atoms: C10_11  and  O11_12 
REMARK    4  A    between atoms: C16_18  and  O17_19 
REMARK    5  A    between atoms: C19_22  and  O20_23 
ROOT
HETATM    1  O1          0      28.224  19.378   3.247  1.00  0.00    -0.286 OA
HETATM    2  C2          0      27.300  20.084   3.737  1.00  0.00     0.201 C 
HETATM    3  C3          0      26.273  19.552   4.497  1.00  0.00     0.067 C 
HETATM    4  C4          0      25.212  20.335   4.939  1.00  0.00     0.103 C 
HETATM    5  O13         0      25.205  21.622   4.636  1.00  0.00    -0.307 OA
HETATM    6  C14         0      26.135  22.169   3.886  1.00  0.00     0.107 C 
HETATM    7  C15         0      25.936  23.382   3.242  1.00  0.00     0.049 C 
HETATM    8  C16         0      26.809  23.829   2.258  1.00  0.00     0.093 C 
HETATM    9  C18         0      28.096  23.311   2.337  1.00  0.00     0.048 C 
HETATM   10  C19         0      28.339  22.124   3.013  1.00  0.00     0.096 C 
HETATM   11  C21         0      27.306  21.466   3.622  1.00  0.00     0.084 C 
ENDROOT
BRANCH  10  12
HETATM   12  O20         0      29.494  21.402   2.728  1.00  0.00    -0.359 OA
HETATM   13  H20         0      29.718  20.677   3.298  1.00  0.00     0.218 HD
ENDBRANCH  10  12
BRANCH   4  14
HETATM   14  C5          0      23.936  19.660   5.179  1.00  0.00     0.025 C 
HETATM   15  C6          0      23.849  18.328   5.558  1.00  0.00     0.004 C 
HETATM   16  C7          0      22.872  17.984   6.486  1.00  0.00     0.026 C 
HETATM   17  C8          0      21.925  18.904   6.923  1.00  0.00     0.112 C 
HETATM   18  C10         0      21.700  19.962   6.053  1.00  0.00     0.112 C 
HETATM   19  C12         0      22.725  20.340   5.194  1.00  0.00     0.028 C 
BRANCH  17  20
HETATM   20  O9          0      21.429  18.851   8.214  1.00  0.00    -0.357 OA
HETATM   21  H9          0      21.090  19.607   8.680  1.00  0.00     0.218 HD
ENDBRANCH  17  20
BRANCH  18  22
HETATM   22  O11         0      20.636  20.803   6.348  1.00  0.00    -0.357 OA
HETATM   23  H11         0      20.607  21.168   7.225  1.00  0.00     0.218 HD
ENDBRANCH  18  22
ENDBRANCH   4  14
BRANCH   8  24
HETATM   24  O17         0      26.342  24.467   1.104  1.00  0.00    -0.359 OA
HETATM   25  H17         0      26.848  25.143   0.668  1.00  0.00     0.218 HD
ENDBRANCH   8  24
TORSDOF 5
ENDMDL
MODEL 7
REMARK VINA RESULT:      -5.4     10.303     12.499
REMARK  5 active torsions:
REMARK  status: ('A' for Active; 'I' for Inactive)
REMARK    1  A    between atoms: C4_4  and  C5_5 
REMARK    2  A    between atoms: C8_8  and  O9_9 
REMARK    3  A    between atoms: C10_11  and  O11_12 
REMARK    4  A    between atoms: C16_18  and  O17_19 
REMARK    5  A    between atoms: C19_22  and  O20_23 
ROOT
HETATM    1  O1          0      25.915  19.083   6.976  1.00  0.00    -0.286 OA
HETATM    2  C2          0      25.365  19.454   5.903  1.00  0.00     0.201 C 
HETATM    3  C3          0      26.071  20.016   4.853  1.00  0.00     0.067 C 
HETATM    4  C4          0      25.427  20.510   3.724  1.00  0.00     0.103 C 
HETATM    5  O13         0      24.111  20.418   3.653  1.00  0.00    -0.307 OA
HETATM    6  C14         0      23.390  19.928   4.637  1.00  0.00     0.107 C 
HETATM    7  C15         0      22.032  20.188   4.748  1.00  0.00     0.049 C 
HETATM    8  C16         0      21.332  19.888   5.911  1.00  0.00     0.093 C 
HETATM    9  C18         0      21.892  18.882   6.689  1.00  0.00     0.048 C 
HETATM   10  C19         0      23.238  18.564   6.570  1.00  0.00     0.096 C 
HETATM   11  C21         0      24.016  19.235   5.667  1.00  0.00     0.084 C 
ENDROOT
BRANCH  10  12
HETATM   12  O20         0      23.874  17.898   7.613  1.00  0.00    -0.359 OA
HETATM   13  H20         0      23.508  17.071   7.903  1.00  0.00     0.218 HD
ENDBRANCH  10  12
BRANCH   4  14
HETATM   14  C5          0      26.100  21.578   2.983  1.00  0.00     0.025 C 
HETATM   15  C6          0      25.875  22.924   3.232  1.00  0.00     0.004 C 
HETATM   16  C7          0      26.967  23.784   3.164  1.00  0.00     0.026 C 
HETATM   17  C8          0      28.214  23.346   2.732  1.00  0.00     0.112 C 
HETATM   18  C10         0      28.185  22.213   1.931  1.00  0.00     0.112 C 
HETATM   19  C12         0      27.125  21.326   2.079  1.00  0.00     0.028 C 
BRANCH  17  20
HETATM   20  O9          0      29.375  23.891   3.250  1.00  0.00    -0.357 OA
HETATM   21  H9          0      29.458  24.206   4.143  1.00  0.00     0.218 HD
ENDBRANCH  17  20
BRANCH  18  22
HETATM   22  O11         0      29.375  21.845   1.319  1.00  0.00    -0.357 OA
HETATM   23  H11         0      29.590  22.277   0.501  1.00  0.00     0.218 HD
ENDBRANCH  18  22
ENDBRANCH   4  14
BRANCH   8  24
HETATM   24  O17         0      20.353  20.750   6.416  1.00  0.00    -0.359 OA
HETATM   25  H17         0      19.759  20.481   7.107  1.00  0.00     0.218 HD
ENDBRANCH   8  24
TORSDOF 5
ENDMDL
MODEL 8
REMARK VINA RESULT:      -5.2     10.419     11.568
REMARK  5 active torsions:
REMARK  status: ('A' for Active; 'I' for Inactive)
REMARK    1  A    between atoms: C4_4  and  C5_5 
REMARK    2  A    between atoms: C8_8  and  O9_9 
REMARK    3  A    between atoms: C10_11  and  O11_12 
REMARK    4  A    between atoms: C16_18  and  O17_19 
REMARK    5  A    between atoms: C19_22  and  O20_23 
ROOT
HETATM    1  O1          0      23.459  17.659   5.235  1.00  0.00    -0.286 OA
HETATM    2  C2          0      24.425  18.416   5.523  1.00  0.00     0.201 C 
HETATM    3  C3          0      24.487  19.740   5.122  1.00  0.00     0.067 C 
HETATM    4  C4          0      25.609  20.523   5.365  1.00  0.00     0.103 C 
HETATM    5  O13         0      26.629  19.988   6.012  1.00  0.00    -0.307 OA
HETATM    6  C14         0      26.638  18.726   6.381  1.00  0.00     0.107 C 
HETATM    7  C15         0      27.817  18.062   6.686  1.00  0.00     0.049 C 
HETATM    8  C16         0      27.852  16.680   6.826  1.00  0.00     0.093 C 
HETATM    9  C18         0      26.640  16.094   7.171  1.00  0.00     0.048 C 
HETATM   10  C19         0      25.442  16.751   6.922  1.00  0.00     0.096 C 
HETATM   11  C21         0      25.456  17.993   6.348  1.00  0.00     0.084 C 
ENDROOT
BRANCH  10  12
HETATM   12  O20         0      24.263  16.016   6.857  1.00  0.00    -0.359 OA
HETATM   13  H20         0      24.295  15.101   7.109  1.00  0.00     0.218 HD
ENDBRANCH  10  12
BRANCH   4  14
HETATM   14  C5          0      25.863  21.633   4.444  1.00  0.00     0.025 C 
HETATM   15  C6          0      25.974  22.950   4.866  1.00  0.00     0.004 C 
HETATM   16  C7          0      26.926  23.749   4.241  1.00  0.00     0.026 C 
HETATM   17  C8          0      27.650  23.298   3.144  1.00  0.00     0.112 C 
HETATM   18  C10         0      27.045  22.271   2.431  1.00  0.00     0.112 C 
HETATM   19  C12         0      26.161  21.434   3.102  1.00  0.00     0.028 C 
BRANCH  17  20
HETATM   20  O9          0      28.955  23.711   2.937  1.00  0.00    -0.357 OA
HETATM   21  H9          0      29.433  23.565   2.129  1.00  0.00     0.218 HD
ENDBRANCH  17  20
BRANCH  18  22
HETATM   22  O11         0      27.629  21.913   1.225  1.00  0.00    -0.357 OA
HETATM   23  H11         0      27.884  22.620   0.643  1.00  0.00     0.218 HD
ENDBRANCH  18  22
ENDBRANCH   4  14
BRANCH   8  24
HETATM   24  O17         0      28.920  15.923   6.331  1.00  0.00    -0.359 OA
HETATM   25  H17         0      29.592  16.309   5.782  1.00  0.00     0.218 HD
ENDBRANCH   8  24
TORSDOF 5
ENDMDL
MODEL 9
REMARK VINA RESULT:      -5.2     10.431     12.367
REMARK  5 active torsions:
REMARK  status: ('A' for Active; 'I' for Inactive)
REMARK    1  A    between atoms: C4_4  and  C5_5 
REMARK    2  A    between atoms: C8_8  and  O9_9 
REMARK    3  A    between atoms: C10_11  and  O11_12 
REMARK    4  A    between atoms: C16_18  and  O17_19 
REMARK    5  A    between atoms: C19_22  and  O20_23 
ROOT
HETATM    1  O1          0      22.803  19.659   4.011  1.00  0.00    -0.286 OA
HETATM    2  C2          0      23.889  19.988   4.562  1.00  0.00     0.201 C 
HETATM    3  C3          0      24.658  21.055   4.127  1.00  0.00     0.067 C 
HETATM    4  C4          0      25.899  21.334   4.686  1.00  0.00     0.103 C 
HETATM    5  O13         0      26.339  20.568   5.670  1.00  0.00    -0.307 OA
HETATM    6  C14         0      25.666  19.521   6.095  1.00  0.00     0.107 C 
HETATM    7  C15         0      26.275  18.506   6.818  1.00  0.00     0.049 C 
HETATM    8  C16         0      25.632  17.295   7.043  1.00  0.00     0.093 C 
HETATM    9  C18         0      24.245  17.349   6.994  1.00  0.00     0.048 C 
HETATM   10  C19         0      23.602  18.377   6.318  1.00  0.00     0.096 C 
HETATM   11  C21         0      24.341  19.355   5.709  1.00  0.00     0.084 C 
ENDROOT
BRANCH  10  12
HETATM   12  O20         0      22.286  18.200   5.903  1.00  0.00    -0.359 OA
HETATM   13  H20         0      21.914  18.846   5.315  1.00  0.00     0.218 HD
ENDBRANCH  10  12
BRANCH   4  14
HETATM   14  C5          0      26.875  22.024   3.841  1.00  0.00     0.025 C 
HETATM   15  C6          0      27.943  21.374   3.240  1.00  0.00     0.004 C 
HETATM   16  C7          0      28.296  21.767   1.953  1.00  0.00     0.026 C 
HETATM   17  C8          0      27.696  22.859   1.334  1.00  0.00     0.112 C 
HETATM   18  C10         0      27.142  23.787   2.205  1.00  0.00     0.112 C 
HETATM   19  C12         0      26.719  23.349   3.455  1.00  0.00     0.028 C 
BRANCH  17  20
HETATM   20  O9          0      27.500  22.878  -0.036  1.00  0.00    -0.357 OA
HETATM   21  H9          0      28.207  22.850  -0.671  1.00  0.00     0.218 HD
ENDBRANCH  17  20
BRANCH  18  22
HETATM   22  O11         0      26.701  24.981   1.653  1.00  0.00    -0.357 OA
HETATM   23  H11         0      27.144  25.774   1.934  1.00  0.00     0.218 HD
ENDBRANCH  18  22
ENDBRANCH   4  14
BRANCH   8  24
HETATM   24  O17         0      26.324  16.080   6.982  1.00  0.00    -0.359 OA
HETATM   25  H17         0      25.868  15.247   6.950  1.00  0.00     0.218 HD
ENDBRANCH   8  24
TORSDOF 5
ENDMDL
