MODEL 1
REMARK VINA RESULT:      -0.6      0.000      0.000
REMARK  5 active torsions:
REMARK  status: ('A' for Active; 'I' for Inactive)
REMARK    1  A    between atoms: C4_4  and  C5_5 
REMARK    2  A    between atoms: C8_8  and  O9_9 
REMARK    3  A    between atoms: C10_11  and  O11_12 
REMARK    4  A    between atoms: C16_18  and  O17_19 
REMARK    5  A    between atoms: C19_22  and  O20_23 
ROOT
HETATM    1  O1          0      65.719  83.253 -15.761  1.00  0.00    -0.286 OA
HETATM    2  C2          0      65.748  83.225 -17.022  1.00  0.00     0.201 C 
HETATM    3  C3          0      64.604  83.276 -17.800  1.00  0.00     0.067 C 
HETATM    4  C4          0      64.657  83.139 -19.183  1.00  0.00     0.103 C 
HETATM    5  O13         0      65.835  82.978 -19.760  1.00  0.00    -0.307 OA
HETATM    6  C14         0      66.947  82.885 -19.065  1.00  0.00     0.107 C 
HETATM    7  C15         0      68.100  82.329 -19.600  1.00  0.00     0.049 C 
HETATM    8  C16         0      69.185  82.001 -18.795  1.00  0.00     0.093 C 
HETATM    9  C18         0      69.271  82.716 -17.607  1.00  0.00     0.048 C 
HETATM   10  C19         0      68.146  83.326 -17.067  1.00  0.00     0.096 C 
HETATM   11  C21         0      66.946  83.236 -17.719  1.00  0.00     0.084 C 
ENDROOT
BRANCH  10  12
HETATM   12  O20         0      68.131  83.648 -15.714  1.00  0.00    -0.359 OA
HETATM   13  H20         0      68.128  84.567 -15.475  1.00  0.00     0.218 HD
ENDBRANCH  10  12
BRANCH   4  14
HETATM   14  C5          0      63.467  82.608 -19.850  1.00  0.00     0.025 C 
HETATM   15  C6          0      63.298  81.259 -20.123  1.00  0.00     0.004 C 
HETATM   16  C7          0      62.021  80.727 -19.975  1.00  0.00     0.026 C 
HETATM   17  C8          0      60.922  81.533 -19.696  1.00  0.00     0.112 C 
HETATM   18  C10         0      61.071  82.863 -20.065  1.00  0.00     0.112 C 
HETATM   19  C12         0      62.354  83.393 -20.122  1.00  0.00     0.028 C 
BRANCH  17  20
HETATM   20  O9          0      59.876  81.062 -18.923  1.00  0.00    -0.357 OA
HETATM   21  H9          0      59.751  81.290 -18.009  1.00  0.00     0.218 HD
ENDBRANCH  17  20
BRANCH  18  22
HETATM   22  O11         0      59.943  83.667 -19.983  1.00  0.00    -0.357 OA
HETATM   23  H11         0      60.079  84.606 -20.043  1.00  0.00     0.218 HD
ENDBRANCH  18  22
ENDBRANCH   4  14
BRANCH   8  24
HETATM   24  O17         0      69.919  80.828 -19.003  1.00  0.00    -0.359 OA
HETATM   25  H17         0      70.838  80.767 -18.770  1.00  0.00     0.218 HD
ENDBRANCH   8  24
TORSDOF 5
ENDMDL
MODEL 2
REMARK VINA RESULT:      -0.6      4.483      7.063
REMARK  5 active torsions:
REMARK  status: ('A' for Active; 'I' for Inactive)
REMARK    1  A    between atoms: C4_4  and  C5_5 
REMARK    2  A    between atoms: C8_8  and  O9_9 
REMARK    3  A    between atoms: C10_11  and  O11_12 
REMARK    4  A    between atoms: C16_18  and  O17_19 
REMARK    5  A    between atoms: C19_22  and  O20_23 
ROOT
HETATM    1  O1          0      60.688  86.871 -14.623  1.00  0.00    -0.286 OA
HETATM    2  C2          0      60.394  86.316 -15.717  1.00  0.00     0.201 C 
HETATM    3  C3          0      60.334  84.942 -15.869  1.00  0.00     0.067 C 
HETATM    4  C4          0      60.109  84.355 -17.110  1.00  0.00     0.103 C 
HETATM    5  O13         0      59.930  85.138 -18.159  1.00  0.00    -0.307 OA
HETATM    6  C14         0      60.014  86.448 -18.076  1.00  0.00     0.107 C 
HETATM    7  C15         0      60.226  87.239 -19.196  1.00  0.00     0.049 C 
HETATM    8  C16         0      60.567  88.581 -19.078  1.00  0.00     0.093 C 
HETATM    9  C18         0      60.168  89.185 -17.892  1.00  0.00     0.048 C 
HETATM   10  C19         0      59.902  88.420 -16.765  1.00  0.00     0.096 C 
HETATM   11  C21         0      60.017  87.058 -16.826  1.00  0.00     0.084 C 
ENDROOT
BRANCH  10  12
HETATM   12  O20         0      59.936  89.021 -15.510  1.00  0.00    -0.359 OA
HETATM   13  H20         0      60.699  89.539 -15.285  1.00  0.00     0.218 HD
ENDBRANCH  10  12
BRANCH   4  14
HETATM   14  C5          0      60.640  83.007 -17.319  1.00  0.00     0.025 C 
HETATM   15  C6          0      59.914  82.001 -17.939  1.00  0.00     0.004 C 
HETATM   16  C7          0      60.601  81.139 -18.789  1.00  0.00     0.026 C 
HETATM   17  C8          0      61.985  81.190 -18.915  1.00  0.00     0.112 C 
HETATM   18  C10         0      62.645  81.754 -17.832  1.00  0.00     0.112 C 
HETATM   19  C12         0      61.962  82.677 -17.049  1.00  0.00     0.028 C 
BRANCH  17  20
HETATM   20  O9          0      62.598  80.892 -20.119  1.00  0.00    -0.357 OA
HETATM   21  H9          0      62.624  80.020 -20.496  1.00  0.00     0.218 HD
ENDBRANCH  17  20
BRANCH  18  22
HETATM   22  O11         0      64.030  81.659 -17.821  1.00  0.00    -0.357 OA
HETATM   23  H11         0      64.498  82.261 -17.254  1.00  0.00     0.218 HD
ENDBRANCH  18  22
ENDBRANCH   4  14
BRANCH   8  24
HETATM   24  O17         0      61.517  89.169 -19.920  1.00  0.00    -0.359 OA
HETATM   25  H17         0      61.262  89.669 -20.687  1.00  0.00     0.218 HD
ENDBRANCH   8  24
TORSDOF 5
ENDMDL
MODEL 3
REMARK VINA RESULT:      -0.6      2.794      3.560
REMARK  5 active torsions:
REMARK  status: ('A' for Active; 'I' for Inactive)
REMARK    1  A    between atoms: C4_4  and  C5_5 
REMARK    2  A    between atoms: C8_8  and  O9_9 
REMARK    3  A    between atoms: C10_11  and  O11_12 
REMARK    4  A    between atoms: C16_18  and  O17_19 
REMARK    5  A    between atoms: C19_22  and  O20_23 
ROOT
HETATM    1  O1          0      64.441  87.576 -16.214  1.00  0.00    -0.286 OA
HETATM    2  C2          0      64.661  86.433 -16.700  1.00  0.00     0.201 C 
HETATM    3  C3          0      64.206  86.048 -17.950  1.00  0.00     0.067 C 
HETATM    4  C4          0      64.373  84.750 -18.419  1.00  0.00     0.103 C 
HETATM    5  O13         0      65.000  83.875 -17.654  1.00  0.00    -0.307 OA
HETATM    6  C14         0      65.419  84.177 -16.444  1.00  0.00     0.107 C 
HETATM    7  C15         0      65.705  83.198 -15.504  1.00  0.00     0.049 C 
HETATM    8  C16         0      65.897  83.518 -14.165  1.00  0.00     0.093 C 
HETATM    9  C18         0      66.312  84.823 -13.927  1.00  0.00     0.048 C 
HETATM   10  C19         0      66.084  85.818 -14.868  1.00  0.00     0.096 C 
HETATM   11  C21         0      65.461  85.509 -16.046  1.00  0.00     0.084 C 
ENDROOT
BRANCH  10  12
HETATM   12  O20         0      66.095  87.150 -14.465  1.00  0.00    -0.359 OA
HETATM   13  H20         0      66.911  87.510 -14.138  1.00  0.00     0.218 HD
ENDBRANCH  10  12
BRANCH   4  14
HETATM   14  C5          0      63.400  84.261 -19.397  1.00  0.00     0.025 C 
HETATM   15  C6          0      63.430  82.971 -19.908  1.00  0.00     0.004 C 
HETATM   16  C7          0      62.212  82.333 -20.118  1.00  0.00     0.026 C 
HETATM   17  C8          0      61.001  82.999 -19.956  1.00  0.00     0.112 C 
HETATM   18  C10         0      61.079  84.380 -20.073  1.00  0.00     0.112 C 
HETATM   19  C12         0      62.286  85.001 -19.774  1.00  0.00     0.028 C 
BRANCH  17  20
HETATM   20  O9          0      59.878  82.329 -19.505  1.00  0.00    -0.357 OA
HETATM   21  H9          0      59.777  82.006 -18.616  1.00  0.00     0.218 HD
ENDBRANCH  17  20
BRANCH  18  22
HETATM   22  O11         0      59.880  85.077 -20.108  1.00  0.00    -0.357 OA
HETATM   23  H11         0      59.135  84.631 -20.495  1.00  0.00     0.218 HD
ENDBRANCH  18  22
ENDBRANCH   4  14
BRANCH   8  24
HETATM   24  O17         0      65.391  82.708 -13.142  1.00  0.00    -0.359 OA
HETATM   25  H17         0      65.479  82.948 -12.227  1.00  0.00     0.218 HD
ENDBRANCH   8  24
TORSDOF 5
ENDMDL
MODEL 4
REMARK VINA RESULT:      -0.5      4.521      6.754
REMARK  5 active torsions:
REMARK  status: ('A' for Active; 'I' for Inactive)
REMARK    1  A    between atoms: C4_4  and  C5_5 
REMARK    2  A    between atoms: C8_8  and  O9_9 
REMARK    3  A    between atoms: C10_11  and  O11_12 
REMARK    4  A    between atoms: C16_18  and  O17_19 
REMARK    5  A    between atoms: C19_22  and  O20_23 
ROOT
HETATM    1  O1          0      63.423  83.292 -15.949  1.00  0.00    -0.286 OA
HETATM    2  C2          0      62.823  83.984 -16.817  1.00  0.00     0.201 C 
HETATM    3  C3          0      62.485  85.312 -16.617  1.00  0.00     0.067 C 
HETATM    4  C4          0      61.735  86.021 -17.547  1.00  0.00     0.103 C 
HETATM    5  O13         0      61.357  85.410 -18.656  1.00  0.00    -0.307 OA
HETATM    6  C14         0      61.618  84.141 -18.879  1.00  0.00     0.107 C 
HETATM    7  C15         0      60.907  83.400 -19.812  1.00  0.00     0.049 C 
HETATM    8  C16         0      61.009  82.015 -19.864  1.00  0.00     0.093 C 
HETATM    9  C18         0      62.189  81.494 -19.349  1.00  0.00     0.048 C 
HETATM   10  C19         0      62.950  82.227 -18.448  1.00  0.00     0.096 C 
HETATM   11  C21         0      62.544  83.480 -18.078  1.00  0.00     0.084 C 
ENDROOT
BRANCH  10  12
HETATM   12  O20         0      63.854  81.564 -17.624  1.00  0.00    -0.359 OA
HETATM   13  H20         0      64.437  80.929 -18.022  1.00  0.00     0.218 HD
ENDBRANCH  10  12
BRANCH   4  14
HETATM   14  C5          0      60.929  87.137 -17.048  1.00  0.00     0.025 C 
HETATM   15  C6          0      60.853  87.466 -15.702  1.00  0.00     0.004 C 
HETATM   16  C7          0      60.815  88.816 -15.370  1.00  0.00     0.026 C 
HETATM   17  C8          0      60.720  89.805 -16.344  1.00  0.00     0.112 C 
HETATM   18  C10         0      60.175  89.381 -17.549  1.00  0.00     0.112 C 
HETATM   19  C12         0      60.303  88.041 -17.896  1.00  0.00     0.028 C 
BRANCH  17  20
HETATM   20  O9          0      61.323  91.037 -16.165  1.00  0.00    -0.357 OA
HETATM   21  H9          0      61.598  91.372 -15.319  1.00  0.00     0.218 HD
ENDBRANCH  17  20
BRANCH  18  22
HETATM   22  O11         0      59.883  90.361 -18.486  1.00  0.00    -0.357 OA
HETATM   23  H11         0      60.452  91.123 -18.503  1.00  0.00     0.218 HD
ENDBRANCH  18  22
ENDBRANCH   4  14
BRANCH   8  24
HETATM   24  O17         0      59.888  81.210 -20.097  1.00  0.00    -0.359 OA
HETATM   25  H17         0      59.031  81.436 -19.755  1.00  0.00     0.218 HD
ENDBRANCH   8  24
TORSDOF 5
ENDMDL
MODEL 5
REMARK VINA RESULT:      -0.5      5.158      7.551
REMARK  5 active torsions:
REMARK  status: ('A' for Active; 'I' for Inactive)
REMARK    1  A    between atoms: C4_4  and  C5_5 
REMARK    2  A    between atoms: C8_8  and  O9_9 
REMARK    3  A    between atoms: C10_11  and  O11_12 
REMARK    4  A    between atoms: C16_18  and  O17_19 
REMARK    5  A    between atoms: C19_22  and  O20_23 
ROOT
HETATM    1  O1          0      62.468  85.708 -16.938  1.00  0.00    -0.286 OA
HETATM    2  C2          0      61.676  84.805 -16.551  1.00  0.00     0.201 C 
HETATM    3  C3          0      61.526  84.459 -15.219  1.00  0.00     0.067 C 
HETATM    4  C4          0      60.723  83.393 -14.830  1.00  0.00     0.103 C 
HETATM    5  O13         0      60.077  82.712 -15.759  1.00  0.00    -0.307 OA
HETATM    6  C14         0      60.213  82.975 -17.041  1.00  0.00     0.107 C 
HETATM    7  C15         0      59.877  82.049 -18.017  1.00  0.00     0.049 C 
HETATM    8  C16         0      60.256  82.227 -19.342  1.00  0.00     0.093 C 
HETATM    9  C18         0      60.486  83.546 -19.715  1.00  0.00     0.048 C 
HETATM   10  C19         0      60.779  84.508 -18.759  1.00  0.00     0.096 C 
HETATM   11  C21         0      60.826  84.159 -17.436  1.00  0.00     0.084 C 
ENDROOT
BRANCH  10  12
HETATM   12  O20         0      61.421  85.680 -19.147  1.00  0.00    -0.359 OA
HETATM   13  H20         0      61.845  85.694 -19.997  1.00  0.00     0.218 HD
ENDBRANCH  10  12
BRANCH   4  14
HETATM   14  C5          0      61.064  82.722 -13.574  1.00  0.00     0.025 C 
HETATM   15  C6          0      61.519  81.412 -13.521  1.00  0.00     0.004 C 
HETATM   16  C7          0      62.512  81.112 -12.594  1.00  0.00     0.026 C 
HETATM   17  C8          0      62.945  82.047 -11.660  1.00  0.00     0.112 C 
HETATM   18  C10         0      62.031  83.054 -11.381  1.00  0.00     0.112 C 
HETATM   19  C12         0      61.102  83.393 -12.358  1.00  0.00     0.028 C 
BRANCH  17  20
HETATM   20  O9          0      64.260  82.062 -11.229  1.00  0.00    -0.357 OA
HETATM   21  H9          0      64.561  81.634 -10.436  1.00  0.00     0.218 HD
ENDBRANCH  17  20
BRANCH  18  22
HETATM   22  O11         0      62.333  83.902 -10.324  1.00  0.00    -0.357 OA
HETATM   23  H11         0      63.156  84.374 -10.373  1.00  0.00     0.218 HD
ENDBRANCH  18  22
ENDBRANCH   4  14
BRANCH   8  24
HETATM   24  O17         0      60.696  81.153 -20.125  1.00  0.00    -0.359 OA
HETATM   25  H17         0      61.255  80.473 -19.769  1.00  0.00     0.218 HD
ENDBRANCH   8  24
TORSDOF 5
ENDMDL
MODEL 6
REMARK VINA RESULT:      -0.5      2.719      4.258
REMARK  5 active torsions:
REMARK  status: ('A' for Active; 'I' for Inactive)
REMARK    1  A    between atoms: C4_4  and  C5_5 
REMARK    2  A    between atoms: C8_8  and  O9_9 
REMARK    3  A    between atoms: C10_11  and  O11_12 
REMARK    4  A    between atoms: C16_18  and  O17_19 
REMARK    5  A    between atoms: C19_22  and  O20_23 
ROOT
HETATM    1  O1          0      66.930  82.261 -15.256  1.00  0.00    -0.286 OA
HETATM    2  C2          0      65.761  82.708 -15.417  1.00  0.00     0.201 C 
HETATM    3  C3          0      64.929  82.284 -16.439  1.00  0.00     0.067 C 
HETATM    4  C4          0      63.686  82.867 -16.656  1.00  0.00     0.103 C 
HETATM    5  O13         0      63.289  83.835 -15.849  1.00  0.00    -0.307 OA
HETATM    6  C14         0      64.055  84.301 -14.887  1.00  0.00     0.107 C 
HETATM    7  C15         0      63.832  85.544 -14.312  1.00  0.00     0.049 C 
HETATM    8  C16         0      64.779  86.138 -13.487  1.00  0.00     0.093 C 
HETATM    9  C18         0      65.652  85.254 -12.864  1.00  0.00     0.048 C 
HETATM   10  C19         0      65.864  83.986 -13.387  1.00  0.00     0.096 C 
HETATM   11  C21         0      65.195  83.596 -14.515  1.00  0.00     0.084 C 
ENDROOT
BRANCH  10  12
HETATM   12  O20         0      67.019  83.291 -13.041  1.00  0.00    -0.359 OA
HETATM   13  H20         0      67.832  83.543 -13.461  1.00  0.00     0.218 HD
ENDBRANCH  10  12
BRANCH   4  14
HETATM   14  C5          0      63.155  82.824 -18.019  1.00  0.00     0.025 C 
HETATM   15  C6          0      63.587  81.907 -18.966  1.00  0.00     0.004 C 
HETATM   16  C7          0      62.635  81.372 -19.828  1.00  0.00     0.026 C 
HETATM   17  C8          0      61.322  81.831 -19.839  1.00  0.00     0.112 C 
HETATM   18  C10         0      61.153  83.118 -19.347  1.00  0.00     0.112 C 
HETATM   19  C12         0      62.073  83.597 -18.422  1.00  0.00     0.028 C 
BRANCH  17  20
HETATM   20  O9          0      60.274  80.973 -20.122  1.00  0.00    -0.357 OA
HETATM   21  H9          0      59.359  81.198 -19.999  1.00  0.00     0.218 HD
ENDBRANCH  17  20
BRANCH  18  22
HETATM   22  O11         0      59.901  83.694 -19.509  1.00  0.00    -0.357 OA
HETATM   23  H11         0      59.804  84.597 -19.231  1.00  0.00     0.218 HD
ENDBRANCH  18  22
ENDBRANCH   4  14
BRANCH   8  24
HETATM   24  O17         0      65.042  87.511 -13.550  1.00  0.00    -0.359 OA
HETATM   25  H17         0      64.919  88.078 -12.798  1.00  0.00     0.218 HD
ENDBRANCH   8  24
TORSDOF 5
ENDMDL
MODEL 7
REMARK VINA RESULT:      -0.5      2.538      6.807
REMARK  5 active torsions:
REMARK  status: ('A' for Active; 'I' for Inactive)
REMARK    1  A    between atoms: C4_4  and  C5_5 
REMARK    2  A    between atoms: C8_8  and  O9_9 
REMARK    3  A    between atoms: C10_11  and  O11_12 
REMARK    4  A    between atoms: C16_18  and  O17_19 
REMARK    5  A    between atoms: C19_22  and  O20_23 
ROOT
HETATM    1  O1          0      61.896  86.710 -18.355  1.00  0.00    -0.286 OA
HETATM    2  C2          0      62.637  85.693 -18.451  1.00  0.00     0.201 C 
HETATM    3  C3          0      63.998  85.777 -18.691  1.00  0.00     0.067 C 
HETATM    4  C4          0      64.772  84.640 -18.894  1.00  0.00     0.103 C 
HETATM    5  O13         0      64.190  83.456 -18.836  1.00  0.00    -0.307 OA
HETATM    6  C14         0      62.895  83.322 -18.649  1.00  0.00     0.107 C 
HETATM    7  C15         0      62.226  82.152 -18.979  1.00  0.00     0.049 C 
HETATM    8  C16         0      60.838  82.102 -19.020  1.00  0.00     0.093 C 
HETATM    9  C18         0      60.193  83.049 -18.234  1.00  0.00     0.048 C 
HETATM   10  C19         0      60.848  84.210 -17.846  1.00  0.00     0.096 C 
HETATM   11  C21         0      62.146  84.416 -18.227  1.00  0.00     0.084 C 
ENDROOT
BRANCH  10  12
HETATM   12  O20         0      60.100  85.316 -17.454  1.00  0.00    -0.359 OA
HETATM   13  H20         0      60.097  85.548 -16.534  1.00  0.00     0.218 HD
ENDBRANCH  10  12
BRANCH   4  14
HETATM   14  C5          0      65.982  84.791 -19.705  1.00  0.00     0.025 C 
HETATM   15  C6          0      66.464  86.026 -20.114  1.00  0.00     0.004 C 
HETATM   16  C7          0      67.843  86.210 -20.124  1.00  0.00     0.026 C 
HETATM   17  C8          0      68.720  85.162 -19.864  1.00  0.00     0.112 C 
HETATM   18  C10         0      68.197  83.897 -20.096  1.00  0.00     0.112 C 
HETATM   19  C12         0      66.821  83.723 -19.996  1.00  0.00     0.028 C 
BRANCH  17  20
HETATM   20  O9          0      69.927  85.390 -19.228  1.00  0.00    -0.357 OA
HETATM   21  H9          0      70.037  85.375 -18.284  1.00  0.00     0.218 HD
ENDBRANCH  17  20
BRANCH  18  22
HETATM   22  O11         0      69.082  82.830 -20.035  1.00  0.00    -0.357 OA
HETATM   23  H11         0      69.817  82.915 -19.440  1.00  0.00     0.218 HD
ENDBRANCH  18  22
ENDBRANCH   4  14
BRANCH   8  24
HETATM   24  O17         0      60.163  81.394 -20.020  1.00  0.00    -0.359 OA
HETATM   25  H17         0      60.177  81.675 -20.928  1.00  0.00     0.218 HD
ENDBRANCH   8  24
TORSDOF 5
ENDMDL
MODEL 8
REMARK VINA RESULT:      -0.4      4.826      6.813
REMARK  5 active torsions:
REMARK  status: ('A' for Active; 'I' for Inactive)
REMARK    1  A    between atoms: C4_4  and  C5_5 
REMARK    2  A    between atoms: C8_8  and  O9_9 
REMARK    3  A    between atoms: C10_11  and  O11_12 
REMARK    4  A    between atoms: C16_18  and  O17_19 
REMARK    5  A    between atoms: C19_22  and  O20_23 
ROOT
HETATM    1  O1          0      65.301  85.726 -18.439  1.00  0.00    -0.286 OA
HETATM    2  C2          0      64.073  85.887 -18.680  1.00  0.00     0.201 C 
HETATM    3  C3          0      63.433  87.106 -18.531  1.00  0.00     0.067 C 
HETATM    4  C4          0      62.060  87.233 -18.704  1.00  0.00     0.103 C 
HETATM    5  O13         0      61.360  86.163 -19.040  1.00  0.00    -0.307 OA
HETATM    6  C14         0      61.912  84.976 -19.158  1.00  0.00     0.107 C 
HETATM    7  C15         0      61.160  83.812 -19.111  1.00  0.00     0.049 C 
HETATM    8  C16         0      61.763  82.567 -18.980  1.00  0.00     0.093 C 
HETATM    9  C18         0      63.077  82.502 -19.426  1.00  0.00     0.048 C 
HETATM   10  C19         0      63.845  83.654 -19.531  1.00  0.00     0.096 C 
HETATM   11  C21         0      63.298  84.865 -19.207  1.00  0.00     0.084 C 
ENDROOT
BRANCH  10  12
HETATM   12  O20         0      65.232  83.548 -19.547  1.00  0.00    -0.359 OA
HETATM   13  H20         0      65.621  82.746 -19.220  1.00  0.00     0.218 HD
ENDBRANCH  10  12
BRANCH   4  14
HETATM   14  C5          0      61.390  88.313 -17.977  1.00  0.00     0.025 C 
HETATM   15  C6          0      60.118  88.182 -17.438  1.00  0.00     0.004 C 
HETATM   16  C7          0      59.876  88.779 -16.205  1.00  0.00     0.026 C 
HETATM   17  C8          0      60.821  89.593 -15.590  1.00  0.00     0.112 C 
HETATM   18  C10         0      61.749  90.159 -16.455  1.00  0.00     0.112 C 
HETATM   19  C12         0      62.035  89.497 -17.642  1.00  0.00     0.028 C 
BRANCH  17  20
HETATM   20  O9          0      60.928  89.638 -14.212  1.00  0.00    -0.357 OA
HETATM   21  H9          0      61.669  90.016 -13.752  1.00  0.00     0.218 HD
ENDBRANCH  17  20
BRANCH  18  22
HETATM   22  O11         0      62.594  91.124 -15.925  1.00  0.00    -0.357 OA
HETATM   23  H11         0      62.744  91.900 -16.452  1.00  0.00     0.218 HD
ENDBRANCH  18  22
ENDBRANCH   4  14
BRANCH   8  24
HETATM   24  O17         0      61.213  81.572 -18.163  1.00  0.00    -0.359 OA
HETATM   25  H17         0      60.699  81.786 -17.394  1.00  0.00     0.218 HD
ENDBRANCH   8  24
TORSDOF 5
ENDMDL
MODEL 9
REMARK VINA RESULT:      -0.4      3.584      5.014
REMARK  5 active torsions:
REMARK  status: ('A' for Active; 'I' for Inactive)
REMARK    1  A    between atoms: C4_4  and  C5_5 
REMARK    2  A    between atoms: C8_8  and  O9_9 
REMARK    3  A    between atoms: C10_11  and  O11_12 
REMARK    4  A    between atoms: C16_18  and  O17_19 
REMARK    5  A    between atoms: C19_22  and  O20_23 
ROOT
HETATM    1  O1          0      65.365  84.700 -15.510  1.00  0.00    -0.286 OA
HETATM    2  C2          0      64.628  83.685 -15.370  1.00  0.00     0.201 C 
HETATM    3  C3          0      63.695  83.299 -16.317  1.00  0.00     0.067 C 
HETATM    4  C4          0      62.825  82.238 -16.092  1.00  0.00     0.103 C 
HETATM    5  O13         0      62.912  81.577 -14.951  1.00  0.00    -0.307 OA
HETATM    6  C14         0      63.755  81.925 -14.004  1.00  0.00     0.107 C 
HETATM    7  C15         0      63.587  81.514 -12.689  1.00  0.00     0.049 C 
HETATM    8  C16         0      64.321  82.084 -11.656  1.00  0.00     0.093 C 
HETATM    9  C18         0      65.534  82.645 -12.037  1.00  0.00     0.048 C 
HETATM   10  C19         0      65.753  83.024 -13.355  1.00  0.00     0.096 C 
HETATM   11  C21         0      64.772  82.829 -14.289  1.00  0.00     0.084 C 
ENDROOT
BRANCH  10  12
HETATM   12  O20         0      66.749  83.953 -13.639  1.00  0.00    -0.359 OA
HETATM   13  H20         0      67.012  84.061 -14.545  1.00  0.00     0.218 HD
ENDBRANCH  10  12
BRANCH   4  14
HETATM   14  C5          0      61.541  82.265 -16.794  1.00  0.00     0.025 C 
HETATM   15  C6          0      60.589  83.252 -16.584  1.00  0.00     0.004 C 
HETATM   16  C7          0      59.876  83.706 -17.689  1.00  0.00     0.026 C 
HETATM   17  C8          0      60.007  83.108 -18.938  1.00  0.00     0.112 C 
HETATM   18  C10         0      60.459  81.795 -18.907  1.00  0.00     0.112 C 
HETATM   19  C12         0      61.242  81.391 -17.832  1.00  0.00     0.028 C 
BRANCH  17  20
HETATM   20  O9          0      59.894  83.854 -20.097  1.00  0.00    -0.357 OA
HETATM   21  H9          0      59.223  83.710 -20.754  1.00  0.00     0.218 HD
ENDBRANCH  17  20
BRANCH  18  22
HETATM   22  O11         0      60.429  81.092 -20.103  1.00  0.00    -0.357 OA
HETATM   23  H11         0      60.113  80.196 -20.067  1.00  0.00     0.218 HD
ENDBRANCH  18  22
ENDBRANCH   4  14
BRANCH   8  24
HETATM   24  O17         0      63.737  82.368 -10.416  1.00  0.00    -0.359 OA
HETATM   25  H17         0      63.240  83.164 -10.270  1.00  0.00     0.218 HD
ENDBRANCH   8  24
TORSDOF 5
ENDMDL
