MODEL 1
REMARK VINA RESULT:      -5.9      0.000      0.000
REMARK  5 active torsions:
REMARK  status: ('A' for Active; 'I' for Inactive)
REMARK    1  A    between atoms: C4_4  and  C5_5 
REMARK    2  A    between atoms: C8_8  and  O9_9 
REMARK    3  A    between atoms: C10_11  and  O11_12 
REMARK    4  A    between atoms: C16_18  and  O17_19 
REMARK    5  A    between atoms: C19_22  and  O20_23 
ROOT
HETATM    1  O1          0      36.448  19.129  34.293  1.00  0.00    -0.286 OA
HETATM    2  C2          0      36.054  18.187  33.553  1.00  0.00     0.201 C 
HETATM    3  C3          0      36.807  17.048  33.322  1.00  0.00     0.067 C 
HETATM    4  C4          0      36.394  16.072  32.422  1.00  0.00     0.103 C 
HETATM    5  O13         0      35.244  16.235  31.792  1.00  0.00    -0.307 OA
HETATM    6  C14         0      34.509  17.314  31.947  1.00  0.00     0.107 C 
HETATM    7  C15         0      33.539  17.676  31.023  1.00  0.00     0.049 C 
HETATM    8  C16         0      32.948  18.934  31.052  1.00  0.00     0.093 C 
HETATM    9  C18         0      32.966  19.562  32.292  1.00  0.00     0.048 C 
HETATM   10  C19         0      33.893  19.192  33.257  1.00  0.00     0.096 C 
HETATM   11  C21         0      34.786  18.189  32.992  1.00  0.00     0.084 C 
ENDROOT
BRANCH  10  12
HETATM   12  O20         0      34.195  20.079  34.286  1.00  0.00    -0.359 OA
HETATM   13  H20         0      35.064  20.038  34.667  1.00  0.00     0.218 HD
ENDBRANCH  10  12
BRANCH   4  14
HETATM   14  C5          0      37.436  15.261  31.789  1.00  0.00     0.025 C 
HETATM   15  C6          0      37.552  15.127  30.413  1.00  0.00     0.004 C 
HETATM   16  C7          0      38.835  15.094  29.875  1.00  0.00     0.026 C 
HETATM   17  C8          0      39.965  15.060  30.685  1.00  0.00     0.112 C 
HETATM   18  C10         0      39.747  14.566  31.964  1.00  0.00     0.112 C 
HETATM   19  C12         0      38.475  14.689  32.511  1.00  0.00     0.028 C 
BRANCH  17  20
HETATM   20  O9          0      41.140  15.673  30.288  1.00  0.00    -0.357 OA
HETATM   21  H9          0      41.958  15.208  30.150  1.00  0.00     0.218 HD
ENDBRANCH  17  20
BRANCH  18  22
HETATM   22  O11         0      40.868  14.334  32.747  1.00  0.00    -0.357 OA
HETATM   23  H11         0      40.754  14.390  33.689  1.00  0.00     0.218 HD
ENDBRANCH  18  22
ENDBRANCH   4  14
BRANCH   8  24
HETATM   24  O17         0      32.672  19.637  29.875  1.00  0.00    -0.359 OA
HETATM   25  H17         0      32.173  19.248  29.166  1.00  0.00     0.218 HD
ENDBRANCH   8  24
TORSDOF 5
ENDMDL
MODEL 2
REMARK VINA RESULT:      -5.8      3.647      6.167
REMARK  5 active torsions:
REMARK  status: ('A' for Active; 'I' for Inactive)
REMARK    1  A    between atoms: C4_4  and  C5_5 
REMARK    2  A    between atoms: C8_8  and  O9_9 
REMARK    3  A    between atoms: C10_11  and  O11_12 
REMARK    4  A    between atoms: C16_18  and  O17_19 
REMARK    5  A    between atoms: C19_22  and  O20_23 
ROOT
HETATM    1  O1          0      40.049  13.984  35.761  1.00  0.00    -0.286 OA
HETATM    2  C2          0      40.280  13.961  34.521  1.00  0.00     0.201 C 
HETATM    3  C3          0      41.542  13.742  33.996  1.00  0.00     0.067 C 
HETATM    4  C4          0      41.787  13.824  32.630  1.00  0.00     0.103 C 
HETATM    5  O13         0      40.781  14.098  31.820  1.00  0.00    -0.307 OA
HETATM    6  C14         0      39.571  14.352  32.269  1.00  0.00     0.107 C 
HETATM    7  C15         0      38.629  15.018  31.497  1.00  0.00     0.049 C 
HETATM    8  C16         0      37.454  15.506  32.055  1.00  0.00     0.093 C 
HETATM    9  C18         0      37.040  14.858  33.213  1.00  0.00     0.048 C 
HETATM   10  C19         0      37.947  14.143  33.984  1.00  0.00     0.096 C 
HETATM   11  C21         0      39.256  14.062  33.592  1.00  0.00     0.084 C 
ENDROOT
BRANCH  10  12
HETATM   12  O20         0      37.648  13.880  35.317  1.00  0.00    -0.359 OA
HETATM   13  H20         0      37.019  13.193  35.504  1.00  0.00     0.218 HD
ENDBRANCH  10  12
BRANCH   4  14
HETATM   14  C5          0      43.145  14.181  32.214  1.00  0.00     0.025 C 
HETATM   15  C6          0      43.940  15.069  32.923  1.00  0.00     0.004 C 
HETATM   16  C7          0      45.298  14.785  33.017  1.00  0.00     0.026 C 
HETATM   17  C8          0      45.873  13.728  32.319  1.00  0.00     0.112 C 
HETATM   18  C10         0      45.165  13.324  31.195  1.00  0.00     0.112 C 
HETATM   19  C12         0      43.793  13.544  31.163  1.00  0.00     0.028 C 
BRANCH  17  20
HETATM   20  O9          0      46.941  13.026  32.848  1.00  0.00    -0.357 OA
HETATM   21  H9          0      46.849  12.228  33.356  1.00  0.00     0.218 HD
ENDBRANCH  17  20
BRANCH  18  22
HETATM   22  O11         0      45.785  12.405  30.359  1.00  0.00    -0.357 OA
HETATM   23  H11         0      45.560  12.444  29.436  1.00  0.00     0.218 HD
ENDBRANCH  18  22
ENDBRANCH   4  14
BRANCH   8  24
HETATM   24  O17         0      36.929  16.747  31.679  1.00  0.00    -0.359 OA
HETATM   25  H17         0      36.784  16.973  30.768  1.00  0.00     0.218 HD
ENDBRANCH   8  24
TORSDOF 5
ENDMDL
MODEL 3
REMARK VINA RESULT:      -5.6      2.268      7.059
REMARK  5 active torsions:
REMARK  status: ('A' for Active; 'I' for Inactive)
REMARK    1  A    between atoms: C4_4  and  C5_5 
REMARK    2  A    between atoms: C8_8  and  O9_9 
REMARK    3  A    between atoms: C10_11  and  O11_12 
REMARK    4  A    between atoms: C16_18  and  O17_19 
REMARK    5  A    between atoms: C19_22  and  O20_23 
ROOT
HETATM    1  O1          0      34.748  16.942  36.690  1.00  0.00    -0.286 OA
HETATM    2  C2          0      34.797  17.471  35.545  1.00  0.00     0.201 C 
HETATM    3  C3          0      33.740  18.180  35.001  1.00  0.00     0.067 C 
HETATM    4  C4          0      33.781  18.665  33.699  1.00  0.00     0.103 C 
HETATM    5  O13         0      34.869  18.455  32.978  1.00  0.00    -0.307 OA
HETATM    6  C14         0      35.885  17.756  33.433  1.00  0.00     0.107 C 
HETATM    7  C15         0      36.828  17.198  32.582  1.00  0.00     0.049 C 
HETATM    8  C16         0      37.745  16.258  33.037  1.00  0.00     0.093 C 
HETATM    9  C18         0      38.015  16.313  34.399  1.00  0.00     0.048 C 
HETATM   10  C19         0      37.114  16.906  35.274  1.00  0.00     0.096 C 
HETATM   11  C21         0      35.958  17.455  34.789  1.00  0.00     0.084 C 
ENDROOT
BRANCH  10  12
HETATM   12  O20         0      37.165  16.582  36.626  1.00  0.00    -0.359 OA
HETATM   13  H20         0      36.472  16.905  37.188  1.00  0.00     0.218 HD
ENDBRANCH  10  12
BRANCH   4  14
HETATM   14  C5          0      32.502  18.843  33.009  1.00  0.00     0.025 C 
HETATM   15  C6          0      31.280  18.774  33.662  1.00  0.00     0.004 C 
HETATM   16  C7          0      30.286  19.662  33.265  1.00  0.00     0.026 C 
HETATM   17  C8          0      30.452  20.501  32.168  1.00  0.00     0.112 C 
HETATM   18  C10         0      31.389  20.063  31.241  1.00  0.00     0.112 C 
HETATM   19  C12         0      32.421  19.244  31.682  1.00  0.00     0.028 C 
BRANCH  17  20
HETATM   20  O9          0      29.875  21.758  32.143  1.00  0.00    -0.357 OA
HETATM   21  H9          0      30.373  22.567  32.158  1.00  0.00     0.218 HD
ENDBRANCH  17  20
BRANCH  18  22
HETATM   22  O11         0      31.458  20.759  30.043  1.00  0.00    -0.357 OA
HETATM   23  H11         0      31.183  20.296  29.260  1.00  0.00     0.218 HD
ENDBRANCH  18  22
ENDBRANCH   4  14
BRANCH   8  24
HETATM   24  O17         0      38.096  15.148  32.262  1.00  0.00    -0.359 OA
HETATM   25  H17         0      37.514  14.799  31.596  1.00  0.00     0.218 HD
ENDBRANCH   8  24
TORSDOF 5
ENDMDL
MODEL 4
REMARK VINA RESULT:      -5.5      2.244      3.342
REMARK  5 active torsions:
REMARK  status: ('A' for Active; 'I' for Inactive)
REMARK    1  A    between atoms: C4_4  and  C5_5 
REMARK    2  A    between atoms: C8_8  and  O9_9 
REMARK    3  A    between atoms: C10_11  and  O11_12 
REMARK    4  A    between atoms: C16_18  and  O17_19 
REMARK    5  A    between atoms: C19_22  and  O20_23 
ROOT
HETATM    1  O1          0      38.471  15.556  36.485  1.00  0.00    -0.286 OA
HETATM    2  C2          0      38.209  15.374  35.265  1.00  0.00     0.201 C 
HETATM    3  C3          0      38.953  14.534  34.454  1.00  0.00     0.067 C 
HETATM    4  C4          0      38.706  14.431  33.090  1.00  0.00     0.103 C 
HETATM    5  O13         0      37.722  15.141  32.568  1.00  0.00    -0.307 OA
HETATM    6  C14         0      37.009  15.981  33.285  1.00  0.00     0.107 C 
HETATM    7  C15         0      36.269  16.998  32.699  1.00  0.00     0.049 C 
HETATM    8  C16         0      35.730  18.029  33.459  1.00  0.00     0.093 C 
HETATM    9  C18         0      35.508  17.718  34.795  1.00  0.00     0.048 C 
HETATM   10  C19         0      36.197  16.677  35.401  1.00  0.00     0.096 C 
HETATM   11  C21         0      37.089  15.938  34.673  1.00  0.00     0.084 C 
ENDROOT
BRANCH  10  12
HETATM   12  O20         0      36.305  16.649  36.788  1.00  0.00    -0.359 OA
HETATM   13  H20         0      35.596  16.255  37.282  1.00  0.00     0.218 HD
ENDBRANCH  10  12
BRANCH   4  14
HETATM   14  C5          0      39.830  14.046  32.233  1.00  0.00     0.025 C 
HETATM   15  C6          0      39.744  14.017  30.849  1.00  0.00     0.004 C 
HETATM   16  C7          0      40.854  14.441  30.126  1.00  0.00     0.026 C 
HETATM   17  C8          0      42.056  14.756  30.751  1.00  0.00     0.112 C 
HETATM   18  C10         0      42.234  14.164  31.994  1.00  0.00     0.112 C 
HETATM   19  C12         0      41.107  13.828  32.734  1.00  0.00     0.028 C 
BRANCH  17  20
HETATM   20  O9          0      42.880  15.745  30.245  1.00  0.00    -0.357 OA
HETATM   21  H9          0      43.792  15.605  30.014  1.00  0.00     0.218 HD
ENDBRANCH  17  20
BRANCH  18  22
HETATM   22  O11         0      43.488  14.290  32.576  1.00  0.00    -0.357 OA
HETATM   23  H11         0      43.662  15.094  33.052  1.00  0.00     0.218 HD
ENDBRANCH  18  22
ENDBRANCH   4  14
BRANCH   8  24
HETATM   24  O17         0      35.733  19.351  33.001  1.00  0.00    -0.359 OA
HETATM   25  H17         0      36.467  19.710  32.516  1.00  0.00     0.218 HD
ENDBRANCH   8  24
TORSDOF 5
ENDMDL
MODEL 5
REMARK VINA RESULT:      -5.5      2.247      6.654
REMARK  5 active torsions:
REMARK  status: ('A' for Active; 'I' for Inactive)
REMARK    1  A    between atoms: C4_4  and  C5_5 
REMARK    2  A    between atoms: C8_8  and  O9_9 
REMARK    3  A    between atoms: C10_11  and  O11_12 
REMARK    4  A    between atoms: C16_18  and  O17_19 
REMARK    5  A    between atoms: C19_22  and  O20_23 
ROOT
HETATM    1  O1          0      34.734  17.375  36.333  1.00  0.00    -0.286 OA
HETATM    2  C2          0      35.183  17.691  35.197  1.00  0.00     0.201 C 
HETATM    3  C3          0      34.523  18.560  34.345  1.00  0.00     0.067 C 
HETATM    4  C4          0      34.987  18.812  33.058  1.00  0.00     0.103 C 
HETATM    5  O13         0      36.096  18.218  32.656  1.00  0.00    -0.307 OA
HETATM    6  C14         0      36.741  17.356  33.411  1.00  0.00     0.107 C 
HETATM    7  C15         0      37.644  16.448  32.877  1.00  0.00     0.049 C 
HETATM    8  C16         0      38.125  15.382  33.627  1.00  0.00     0.093 C 
HETATM    9  C18         0      38.096  15.572  35.004  1.00  0.00     0.048 C 
HETATM   10  C19         0      37.238  16.506  35.568  1.00  0.00     0.096 C 
HETATM   11  C21         0      36.426  17.257  34.762  1.00  0.00     0.084 C 
ENDROOT
BRANCH  10  12
HETATM   12  O20         0      36.896  16.391  36.912  1.00  0.00    -0.359 OA
HETATM   13  H20         0      36.981  15.538  37.322  1.00  0.00     0.218 HD
ENDBRANCH  10  12
BRANCH   4  14
HETATM   14  C5          0      33.997  19.210  32.056  1.00  0.00     0.025 C 
HETATM   15  C6          0      33.623  18.390  31.001  1.00  0.00     0.004 C 
HETATM   16  C7          0      32.284  18.394  30.625  1.00  0.00     0.026 C 
HETATM   17  C8          0      31.371  19.279  31.187  1.00  0.00     0.112 C 
HETATM   18  C10         0      31.934  20.430  31.723  1.00  0.00     0.112 C 
HETATM   19  C12         0      33.249  20.375  32.170  1.00  0.00     0.028 C 
BRANCH  17  20
HETATM   20  O9          0      30.049  18.914  31.370  1.00  0.00    -0.357 OA
HETATM   21  H9          0      29.576  19.035  32.185  1.00  0.00     0.218 HD
ENDBRANCH  17  20
BRANCH  18  22
HETATM   22  O11         0      31.059  21.429  32.125  1.00  0.00    -0.357 OA
HETATM   23  H11         0      31.193  21.795  32.992  1.00  0.00     0.218 HD
ENDBRANCH  18  22
ENDBRANCH   4  14
BRANCH   8  24
HETATM   24  O17         0      38.299  14.113  33.064  1.00  0.00    -0.359 OA
HETATM   25  H17         0      38.087  13.321  33.543  1.00  0.00     0.218 HD
ENDBRANCH   8  24
TORSDOF 5
ENDMDL
MODEL 6
REMARK VINA RESULT:      -5.5      2.286      6.613
REMARK  5 active torsions:
REMARK  status: ('A' for Active; 'I' for Inactive)
REMARK    1  A    between atoms: C4_4  and  C5_5 
REMARK    2  A    between atoms: C8_8  and  O9_9 
REMARK    3  A    between atoms: C10_11  and  O11_12 
REMARK    4  A    between atoms: C16_18  and  O17_19 
REMARK    5  A    between atoms: C19_22  and  O20_23 
ROOT
HETATM    1  O1          0      38.323  14.808  32.128  1.00  0.00    -0.286 OA
HETATM    2  C2          0      37.349  15.368  32.703  1.00  0.00     0.201 C 
HETATM    3  C3          0      36.440  16.168  32.032  1.00  0.00     0.067 C 
HETATM    4  C4          0      35.438  16.856  32.706  1.00  0.00     0.103 C 
HETATM    5  O13         0      35.346  16.720  34.017  1.00  0.00    -0.307 OA
HETATM    6  C14         0      36.206  16.003  34.707  1.00  0.00     0.107 C 
HETATM    7  C15         0      36.366  16.171  36.075  1.00  0.00     0.049 C 
HETATM    8  C16         0      37.439  15.604  36.751  1.00  0.00     0.093 C 
HETATM    9  C18         0      37.992  14.485  36.140  1.00  0.00     0.048 C 
HETATM   10  C19         0      37.812  14.261  34.782  1.00  0.00     0.096 C 
HETATM   11  C21         0      37.070  15.141  34.042  1.00  0.00     0.084 C 
ENDROOT
BRANCH  10  12
HETATM   12  O20         0      38.695  13.423  34.108  1.00  0.00    -0.359 OA
HETATM   13  H20         0      39.613  13.459  34.347  1.00  0.00     0.218 HD
ENDBRANCH  10  12
BRANCH   4  14
HETATM   14  C5          0      34.936  18.085  32.088  1.00  0.00     0.025 C 
HETATM   15  C6          0      34.104  18.083  30.978  1.00  0.00     0.004 C 
HETATM   16  C7          0      33.088  19.032  30.933  1.00  0.00     0.026 C 
HETATM   17  C8          0      32.982  20.034  31.891  1.00  0.00     0.112 C 
HETATM   18  C10         0      34.167  20.332  32.551  1.00  0.00     0.112 C 
HETATM   19  C12         0      35.132  19.337  32.656  1.00  0.00     0.028 C 
BRANCH  17  20
HETATM   20  O9          0      31.745  20.520  32.275  1.00  0.00    -0.357 OA
HETATM   21  H9          0      31.065  19.983  32.665  1.00  0.00     0.218 HD
ENDBRANCH  17  20
BRANCH  18  22
HETATM   22  O11         0      34.163  21.446  33.377  1.00  0.00    -0.357 OA
HETATM   23  H11         0      34.995  21.702  33.758  1.00  0.00     0.218 HD
ENDBRANCH  18  22
ENDBRANCH   4  14
BRANCH   8  24
HETATM   24  O17         0      38.111  16.296  37.765  1.00  0.00    -0.359 OA
HETATM   25  H17         0      38.808  16.911  37.572  1.00  0.00     0.218 HD
ENDBRANCH   8  24
TORSDOF 5
ENDMDL
MODEL 7
REMARK VINA RESULT:      -5.3      1.641      6.792
REMARK  5 active torsions:
REMARK  status: ('A' for Active; 'I' for Inactive)
REMARK    1  A    between atoms: C4_4  and  C5_5 
REMARK    2  A    between atoms: C8_8  and  O9_9 
REMARK    3  A    between atoms: C10_11  and  O11_12 
REMARK    4  A    between atoms: C16_18  and  O17_19 
REMARK    5  A    between atoms: C19_22  and  O20_23 
ROOT
HETATM    1  O1          0      38.194  14.617  29.875  1.00  0.00    -0.286 OA
HETATM    2  C2          0      37.607  15.083  30.890  1.00  0.00     0.201 C 
HETATM    3  C3          0      36.554  15.977  30.803  1.00  0.00     0.067 C 
HETATM    4  C4          0      35.993  16.554  31.937  1.00  0.00     0.103 C 
HETATM    5  O13         0      36.470  16.218  33.122  1.00  0.00    -0.307 OA
HETATM    6  C14         0      37.492  15.403  33.259  1.00  0.00     0.107 C 
HETATM    7  C15         0      38.241  15.359  34.427  1.00  0.00     0.049 C 
HETATM    8  C16         0      39.460  14.693  34.478  1.00  0.00     0.093 C 
HETATM    9  C18         0      39.615  13.681  33.538  1.00  0.00     0.048 C 
HETATM   10  C19         0      38.849  13.669  32.381  1.00  0.00     0.096 C 
HETATM   11  C21         0      37.922  14.652  32.170  1.00  0.00     0.084 C 
ENDROOT
BRANCH  10  12
HETATM   12  O20         0      39.293  12.943  31.279  1.00  0.00    -0.359 OA
HETATM   13  H20         0      40.228  12.900  31.122  1.00  0.00     0.218 HD
ENDBRANCH  10  12
BRANCH   4  14
HETATM   14  C5          0      35.358  17.864  31.777  1.00  0.00     0.025 C 
HETATM   15  C6          0      34.426  18.132  30.785  1.00  0.00     0.004 C 
HETATM   16  C7          0      33.352  18.953  31.114  1.00  0.00     0.026 C 
HETATM   17  C8          0      33.275  19.594  32.346  1.00  0.00     0.112 C 
HETATM   18  C10         0      34.496  19.777  32.982  1.00  0.00     0.112 C 
HETATM   19  C12         0      35.527  18.890  32.698  1.00  0.00     0.028 C 
BRANCH  17  20
HETATM   20  O9          0      32.052  19.823  32.951  1.00  0.00    -0.357 OA
HETATM   21  H9          0      31.216  19.677  32.523  1.00  0.00     0.218 HD
ENDBRANCH  17  20
BRANCH  18  22
HETATM   22  O11         0      34.499  20.574  34.118  1.00  0.00    -0.357 OA
HETATM   23  H11         0      35.266  21.118  34.258  1.00  0.00     0.218 HD
ENDBRANCH  18  22
ENDBRANCH   4  14
BRANCH   8  24
HETATM   24  O17         0      40.550  15.220  35.178  1.00  0.00    -0.359 OA
HETATM   25  H17         0      40.901  16.081  34.981  1.00  0.00     0.218 HD
ENDBRANCH   8  24
TORSDOF 5
ENDMDL
MODEL 8
REMARK VINA RESULT:      -5.2      4.170      6.884
REMARK  5 active torsions:
REMARK  status: ('A' for Active; 'I' for Inactive)
REMARK    1  A    between atoms: C4_4  and  C5_5 
REMARK    2  A    between atoms: C8_8  and  O9_9 
REMARK    3  A    between atoms: C10_11  and  O11_12 
REMARK    4  A    between atoms: C16_18  and  O17_19 
REMARK    5  A    between atoms: C19_22  and  O20_23 
ROOT
HETATM    1  O1          0      37.253  15.863  37.353  1.00  0.00    -0.286 OA
HETATM    2  C2          0      36.116  16.145  36.883  1.00  0.00     0.201 C 
HETATM    3  C3          0      35.920  16.509  35.562  1.00  0.00     0.067 C 
HETATM    4  C4          0      34.675  16.914  35.095  1.00  0.00     0.103 C 
HETATM    5  O13         0      33.656  16.928  35.935  1.00  0.00    -0.307 OA
HETATM    6  C14         0      33.795  16.628  37.208  1.00  0.00     0.107 C 
HETATM    7  C15         0      32.860  17.015  38.157  1.00  0.00     0.049 C 
HETATM    8  C16         0      33.132  16.923  39.517  1.00  0.00     0.093 C 
HETATM    9  C18         0      34.089  15.976  39.861  1.00  0.00     0.048 C 
HETATM   10  C19         0      35.010  15.530  38.923  1.00  0.00     0.096 C 
HETATM   11  C21         0      34.965  16.015  37.644  1.00  0.00     0.084 C 
ENDROOT
BRANCH  10  12
HETATM   12  O20         0      36.195  14.946  39.358  1.00  0.00    -0.359 OA
HETATM   13  H20         0      36.991  15.463  39.309  1.00  0.00     0.218 HD
ENDBRANCH  10  12
BRANCH   4  14
HETATM   14  C5          0      34.653  17.820  33.945  1.00  0.00     0.025 C 
HETATM   15  C6          0      34.191  17.437  32.694  1.00  0.00     0.004 C 
HETATM   16  C7          0      33.464  18.370  31.962  1.00  0.00     0.026 C 
HETATM   17  C8          0      33.315  19.682  32.396  1.00  0.00     0.112 C 
HETATM   18  C10         0      34.299  20.117  33.274  1.00  0.00     0.112 C 
HETATM   19  C12         0      34.951  19.172  34.057  1.00  0.00     0.028 C 
BRANCH  17  20
HETATM   20  O9          0      32.158  20.391  32.126  1.00  0.00    -0.357 OA
HETATM   21  H9          0      31.414  20.433  32.715  1.00  0.00     0.218 HD
ENDBRANCH  17  20
BRANCH  18  22
HETATM   22  O11         0      34.306  21.469  33.590  1.00  0.00    -0.357 OA
HETATM   23  H11         0      33.529  21.816  34.013  1.00  0.00     0.218 HD
ENDBRANCH  18  22
ENDBRANCH   4  14
BRANCH   8  24
HETATM   24  O17         0      32.731  17.922  40.411  1.00  0.00    -0.359 OA
HETATM   25  H17         0      33.247  18.144  41.176  1.00  0.00     0.218 HD
ENDBRANCH   8  24
TORSDOF 5
ENDMDL
MODEL 9
REMARK VINA RESULT:      -5.1     15.610     18.076
REMARK  5 active torsions:
REMARK  status: ('A' for Active; 'I' for Inactive)
REMARK    1  A    between atoms: C4_4  and  C5_5 
REMARK    2  A    between atoms: C8_8  and  O9_9 
REMARK    3  A    between atoms: C10_11  and  O11_12 
REMARK    4  A    between atoms: C16_18  and  O17_19 
REMARK    5  A    between atoms: C19_22  and  O20_23 
ROOT
HETATM    1  O1          0      40.818  23.792  46.909  1.00  0.00    -0.286 OA
HETATM    2  C2          0      39.822  23.900  47.675  1.00  0.00     0.201 C 
HETATM    3  C3          0      38.867  22.907  47.810  1.00  0.00     0.067 C 
HETATM    4  C4          0      37.726  23.094  48.583  1.00  0.00     0.103 C 
HETATM    5  O13         0      37.569  24.243  49.215  1.00  0.00    -0.307 OA
HETATM    6  C14         0      38.426  25.233  49.091  1.00  0.00     0.107 C 
HETATM    7  C15         0      38.085  26.540  49.408  1.00  0.00     0.049 C 
HETATM    8  C16         0      38.895  27.607  49.039  1.00  0.00     0.093 C 
HETATM    9  C18         0      40.234  27.287  48.846  1.00  0.00     0.048 C 
HETATM   10  C19         0      40.616  25.981  48.573  1.00  0.00     0.096 C 
HETATM   11  C21         0      39.668  24.996  48.512  1.00  0.00     0.084 C 
ENDROOT
BRANCH  10  12
HETATM   12  O20         0      41.844  25.743  47.964  1.00  0.00    -0.359 OA
HETATM   13  H20         0      42.406  25.078  48.341  1.00  0.00     0.218 HD
ENDBRANCH  10  12
BRANCH   4  14
HETATM   14  C5          0      36.537  22.321  48.219  1.00  0.00     0.025 C 
HETATM   15  C6          0      35.249  22.821  48.342  1.00  0.00     0.004 C 
HETATM   16  C7          0      34.333  22.495  47.347  1.00  0.00     0.026 C 
HETATM   17  C8          0      34.645  21.594  46.335  1.00  0.00     0.112 C 
HETATM   18  C10         0      35.664  20.703  46.646  1.00  0.00     0.112 C 
HETATM   19  C12         0      36.616  21.089  47.582  1.00  0.00     0.028 C 
BRANCH  17  20
HETATM   20  O9          0      34.114  21.741  45.066  1.00  0.00    -0.357 OA
HETATM   21  H9          0      33.909  21.013  44.491  1.00  0.00     0.218 HD
ENDBRANCH  17  20
BRANCH  18  22
HETATM   22  O11         0      35.887  19.667  45.751  1.00  0.00    -0.357 OA
HETATM   23  H11         0      36.771  19.571  45.415  1.00  0.00     0.218 HD
ENDBRANCH  18  22
ENDBRANCH   4  14
BRANCH   8  24
HETATM   24  O17         0      38.351  28.809  48.575  1.00  0.00    -0.359 OA
HETATM   25  H17         0      38.037  28.903  47.683  1.00  0.00     0.218 HD
ENDBRANCH   8  24
TORSDOF 5
ENDMDL
