MODEL 1
REMARK VINA RESULT:      -8.5      0.000      0.000
REMARK  5 active torsions:
REMARK  status: ('A' for Active; 'I' for Inactive)
REMARK    1  A    between atoms: C4_4  and  C5_5 
REMARK    2  A    between atoms: C8_8  and  O9_9 
REMARK    3  A    between atoms: C10_11  and  O11_12 
REMARK    4  A    between atoms: C16_18  and  O17_19 
REMARK    5  A    between atoms: C19_22  and  O20_23 
ROOT
HETATM    1  O1          0      38.383  85.438  -9.837  1.00  0.00    -0.286 OA
HETATM    2  C2          0      37.146  85.294 -10.037  1.00  0.00     0.201 C 
HETATM    3  C3          0      36.294  86.360 -10.270  1.00  0.00     0.067 C 
HETATM    4  C4          0      34.920  86.182 -10.386  1.00  0.00     0.103 C 
HETATM    5  O13         0      34.427  84.960 -10.288  1.00  0.00    -0.307 OA
HETATM    6  C14         0      35.187  83.918 -10.030  1.00  0.00     0.107 C 
HETATM    7  C15         0      34.660  82.733  -9.538  1.00  0.00     0.049 C 
HETATM    8  C16         0      35.481  81.734  -9.030  1.00  0.00     0.093 C 
HETATM    9  C18         0      36.784  81.743  -9.513  1.00  0.00     0.048 C 
HETATM   10  C19         0      37.328  82.900 -10.056  1.00  0.00     0.096 C 
HETATM   11  C21         0      36.569  84.036 -10.130  1.00  0.00     0.084 C 
ENDROOT
BRANCH  10  12
HETATM   12  O20         0      38.711  83.033 -10.127  1.00  0.00    -0.359 OA
HETATM   13  H20         0      39.070  83.908 -10.208  1.00  0.00     0.218 HD
ENDBRANCH  10  12
BRANCH   4  14
HETATM   14  C5          0      34.066  87.317 -10.029  1.00  0.00     0.025 C 
HETATM   15  C6          0      33.934  88.440 -10.832  1.00  0.00     0.004 C 
HETATM   16  C7          0      32.673  89.022 -10.924  1.00  0.00     0.026 C 
HETATM   17  C8          0      31.610  88.586 -10.141  1.00  0.00     0.112 C 
HETATM   18  C10         0      31.979  87.936  -8.972  1.00  0.00     0.112 C 
HETATM   19  C12         0      33.209  87.289  -8.936  1.00  0.00     0.028 C 
BRANCH  17  20
HETATM   20  O9          0      30.313  88.625 -10.622  1.00  0.00    -0.357 OA
HETATM   21  H9          0      29.550  88.761 -10.072  1.00  0.00     0.218 HD
ENDBRANCH  17  20
BRANCH  18  22
HETATM   22  O11         0      30.968  87.649  -8.066  1.00  0.00    -0.357 OA
HETATM   23  H11         0      30.120  88.046  -8.228  1.00  0.00     0.218 HD
ENDBRANCH  18  22
ENDBRANCH   4  14
BRANCH   8  24
HETATM   24  O17         0      35.125  81.008  -7.888  1.00  0.00    -0.359 OA
HETATM   25  H17         0      34.381  80.419  -7.883  1.00  0.00     0.218 HD
ENDBRANCH   8  24
TORSDOF 5
ENDMDL
MODEL 2
REMARK VINA RESULT:      -8.4      3.147      6.609
REMARK  5 active torsions:
REMARK  status: ('A' for Active; 'I' for Inactive)
REMARK    1  A    between atoms: C4_4  and  C5_5 
REMARK    2  A    between atoms: C8_8  and  O9_9 
REMARK    3  A    between atoms: C10_11  and  O11_12 
REMARK    4  A    between atoms: C16_18  and  O17_19 
REMARK    5  A    between atoms: C19_22  and  O20_23 
ROOT
HETATM    1  O1          0      32.076  86.639 -10.675  1.00  0.00    -0.286 OA
HETATM    2  C2          0      32.575  85.807  -9.870  1.00  0.00     0.201 C 
HETATM    3  C3          0      32.959  84.532 -10.249  1.00  0.00     0.067 C 
HETATM    4  C4          0      33.411  83.600  -9.322  1.00  0.00     0.103 C 
HETATM    5  O13         0      33.490  83.956  -8.052  1.00  0.00    -0.307 OA
HETATM    6  C14         0      33.103  85.141  -7.632  1.00  0.00     0.107 C 
HETATM    7  C15         0      32.807  85.383  -6.299  1.00  0.00     0.049 C 
HETATM    8  C16         0      32.160  86.548  -5.903  1.00  0.00     0.093 C 
HETATM    9  C18         0      32.314  87.627  -6.766  1.00  0.00     0.048 C 
HETATM   10  C19         0      32.657  87.423  -8.096  1.00  0.00     0.096 C 
HETATM   11  C21         0      32.861  86.151  -8.557  1.00  0.00     0.084 C 
ENDROOT
BRANCH  10  12
HETATM   12  O20         0      32.386  88.419  -9.029  1.00  0.00    -0.359 OA
HETATM   13  H20         0      33.100  88.985  -9.296  1.00  0.00     0.218 HD
ENDBRANCH  10  12
BRANCH   4  14
HETATM   14  C5          0      33.220  82.185  -9.646  1.00  0.00     0.025 C 
HETATM   15  C6          0      32.253  81.398  -9.038  1.00  0.00     0.004 C 
HETATM   16  C7          0      31.591  80.464  -9.830  1.00  0.00     0.026 C 
HETATM   17  C8          0      31.969  80.226 -11.147  1.00  0.00     0.112 C 
HETATM   18  C10         0      33.282  80.568 -11.444  1.00  0.00     0.112 C 
HETATM   19  C12         0      33.891  81.565 -10.692  1.00  0.00     0.028 C 
BRANCH  17  20
HETATM   20  O9          0      31.030  79.879 -12.102  1.00  0.00    -0.357 OA
HETATM   21  H9          0      30.602  79.031 -12.138  1.00  0.00     0.218 HD
ENDBRANCH  17  20
BRANCH  18  22
HETATM   22  O11         0      33.767  80.178 -12.685  1.00  0.00    -0.357 OA
HETATM   23  H11         0      33.189  80.299 -13.430  1.00  0.00     0.218 HD
ENDBRANCH  18  22
ENDBRANCH   4  14
BRANCH   8  24
HETATM   24  O17         0      31.172  86.534  -4.913  1.00  0.00    -0.359 OA
HETATM   25  H17         0      31.069  87.252  -4.300  1.00  0.00     0.218 HD
ENDBRANCH   8  24
TORSDOF 5
ENDMDL
MODEL 3
REMARK VINA RESULT:      -8.4      2.302      6.561
REMARK  5 active torsions:
REMARK  status: ('A' for Active; 'I' for Inactive)
REMARK    1  A    between atoms: C4_4  and  C5_5 
REMARK    2  A    between atoms: C8_8  and  O9_9 
REMARK    3  A    between atoms: C10_11  and  O11_12 
REMARK    4  A    between atoms: C16_18  and  O17_19 
REMARK    5  A    between atoms: C19_22  and  O20_23 
ROOT
HETATM    1  O1          0      32.604  86.859 -10.509  1.00  0.00    -0.286 OA
HETATM    2  C2          0      33.205  86.117  -9.684  1.00  0.00     0.201 C 
HETATM    3  C3          0      33.981  85.038 -10.072  1.00  0.00     0.067 C 
HETATM    4  C4          0      34.548  84.176  -9.140  1.00  0.00     0.103 C 
HETATM    5  O13         0      34.352  84.412  -7.855  1.00  0.00    -0.307 OA
HETATM    6  C14         0      33.593  85.400  -7.434  1.00  0.00     0.107 C 
HETATM    7  C15         0      33.062  85.419  -6.152  1.00  0.00     0.049 C 
HETATM    8  C16         0      32.066  86.320  -5.796  1.00  0.00     0.093 C 
HETATM    9  C18         0      32.024  87.480  -6.560  1.00  0.00     0.048 C 
HETATM   10  C19         0      32.586  87.510  -7.829  1.00  0.00     0.096 C 
HETATM   11  C21         0      33.202  86.393  -8.325  1.00  0.00     0.084 C 
ENDROOT
BRANCH  10  12
HETATM   12  O20         0      32.173  88.484  -8.734  1.00  0.00    -0.359 OA
HETATM   13  H20         0      32.834  88.893  -9.279  1.00  0.00     0.218 HD
ENDBRANCH  10  12
BRANCH   4  14
HETATM   14  C5          0      34.811  82.802  -9.572  1.00  0.00     0.025 C 
HETATM   15  C6          0      33.857  82.017 -10.202  1.00  0.00     0.004 C 
HETATM   16  C7          0      34.286  81.181 -11.229  1.00  0.00     0.026 C 
HETATM   17  C8          0      35.635  81.030 -11.531  1.00  0.00     0.112 C 
HETATM   18  C10         0      36.500  81.331 -10.487  1.00  0.00     0.112 C 
HETATM   19  C12         0      36.078  82.235  -9.519  1.00  0.00     0.028 C 
BRANCH  17  20
HETATM   20  O9          0      36.050  80.805 -12.831  1.00  0.00    -0.357 OA
HETATM   21  H9          0      36.665  80.125 -13.079  1.00  0.00     0.218 HD
ENDBRANCH  17  20
BRANCH  18  22
HETATM   22  O11         0      37.839  81.018 -10.670  1.00  0.00    -0.357 OA
HETATM   23  H11         0      38.299  81.483 -11.361  1.00  0.00     0.218 HD
ENDBRANCH  18  22
ENDBRANCH   4  14
BRANCH   8  24
HETATM   24  O17         0      30.998  85.940  -4.976  1.00  0.00    -0.359 OA
HETATM   25  H17         0      31.139  85.524  -4.134  1.00  0.00     0.218 HD
ENDBRANCH   8  24
TORSDOF 5
ENDMDL
MODEL 4
REMARK VINA RESULT:      -8.1      2.719      6.572
REMARK  5 active torsions:
REMARK  status: ('A' for Active; 'I' for Inactive)
REMARK    1  A    between atoms: C4_4  and  C5_5 
REMARK    2  A    between atoms: C8_8  and  O9_9 
REMARK    3  A    between atoms: C10_11  and  O11_12 
REMARK    4  A    between atoms: C16_18  and  O17_19 
REMARK    5  A    between atoms: C19_22  and  O20_23 
ROOT
HETATM    1  O1          0      34.820  87.744  -9.793  1.00  0.00    -0.286 OA
HETATM    2  C2          0      33.706  87.273  -9.433  1.00  0.00     0.201 C 
HETATM    3  C3          0      33.591  86.211  -8.552  1.00  0.00     0.067 C 
HETATM    4  C4          0      32.357  85.645  -8.251  1.00  0.00     0.103 C 
HETATM    5  O13         0      31.272  86.153  -8.810  1.00  0.00    -0.307 OA
HETATM    6  C14         0      31.330  87.136  -9.681  1.00  0.00     0.107 C 
HETATM    7  C15         0      30.284  87.402 -10.554  1.00  0.00     0.049 C 
HETATM    8  C16         0      30.445  88.264 -11.632  1.00  0.00     0.093 C 
HETATM    9  C18         0      31.456  89.206 -11.484  1.00  0.00     0.048 C 
HETATM   10  C19         0      32.493  88.994 -10.586  1.00  0.00     0.096 C 
HETATM   11  C21         0      32.512  87.855  -9.828  1.00  0.00     0.084 C 
ENDROOT
BRANCH  10  12
HETATM   12  O20         0      33.687  89.689 -10.749  1.00  0.00    -0.359 OA
HETATM   13  H20         0      33.883  90.388 -10.138  1.00  0.00     0.218 HD
ENDBRANCH  10  12
BRANCH   4  14
HETATM   14  C5          0      32.347  84.239  -7.843  1.00  0.00     0.025 C 
HETATM   15  C6          0      31.183  83.488  -7.763  1.00  0.00     0.004 C 
HETATM   16  C7          0      31.246  82.158  -8.168  1.00  0.00     0.026 C 
HETATM   17  C8          0      32.451  81.556  -8.512  1.00  0.00     0.112 C 
HETATM   18  C10         0      33.577  82.160  -7.967  1.00  0.00     0.112 C 
HETATM   19  C12         0      33.514  83.511  -7.651  1.00  0.00     0.028 C 
BRANCH  17  20
HETATM   20  O9          0      32.501  80.576  -9.488  1.00  0.00    -0.357 OA
HETATM   21  H9          0      33.175  79.907  -9.530  1.00  0.00     0.218 HD
ENDBRANCH  17  20
BRANCH  18  22
HETATM   22  O11         0      34.784  81.493  -8.122  1.00  0.00    -0.357 OA
HETATM   23  H11         0      34.750  80.627  -8.511  1.00  0.00     0.218 HD
ENDBRANCH  18  22
ENDBRANCH   4  14
BRANCH   8  24
HETATM   24  O17         0      29.875  87.986 -12.879  1.00  0.00    -0.359 OA
HETATM   25  H17         0      29.006  87.610 -12.958  1.00  0.00     0.218 HD
ENDBRANCH   8  24
TORSDOF 5
ENDMDL
MODEL 5
REMARK VINA RESULT:      -7.8      2.467      6.696
REMARK  5 active torsions:
REMARK  status: ('A' for Active; 'I' for Inactive)
REMARK    1  A    between atoms: C4_4  and  C5_5 
REMARK    2  A    between atoms: C8_8  and  O9_9 
REMARK    3  A    between atoms: C10_11  and  O11_12 
REMARK    4  A    between atoms: C16_18  and  O17_19 
REMARK    5  A    between atoms: C19_22  and  O20_23 
ROOT
HETATM    1  O1          0      35.787  86.390 -10.192  1.00  0.00    -0.286 OA
HETATM    2  C2          0      34.955  85.452 -10.055  1.00  0.00     0.201 C 
HETATM    3  C3          0      35.331  84.121  -9.988  1.00  0.00     0.067 C 
HETATM    4  C4          0      34.388  83.100  -9.940  1.00  0.00     0.103 C 
HETATM    5  O13         0      33.106  83.419  -9.939  1.00  0.00    -0.307 OA
HETATM    6  C14         0      32.695  84.664 -10.039  1.00  0.00     0.107 C 
HETATM    7  C15         0      31.404  84.979 -10.436  1.00  0.00     0.049 C 
HETATM    8  C16         0      31.052  86.277 -10.784  1.00  0.00     0.093 C 
HETATM    9  C18         0      31.845  87.271 -10.225  1.00  0.00     0.048 C 
HETATM   10  C19         0      33.126  86.981  -9.774  1.00  0.00     0.096 C 
HETATM   11  C21         0      33.605  85.702  -9.867  1.00  0.00     0.084 C 
ENDROOT
BRANCH  10  12
HETATM   12  O20         0      34.047  88.014  -9.632  1.00  0.00    -0.359 OA
HETATM   13  H20         0      33.847  88.707  -9.015  1.00  0.00     0.218 HD
ENDBRANCH  10  12
BRANCH   4  14
HETATM   14  C5          0      34.788  81.793 -10.466  1.00  0.00     0.025 C 
HETATM   15  C6          0      33.971  81.031 -11.288  1.00  0.00     0.004 C 
HETATM   16  C7          0      34.576  80.330 -12.326  1.00  0.00     0.026 C 
HETATM   17  C8          0      35.958  80.279 -12.464  1.00  0.00     0.112 C 
HETATM   18  C10         0      36.667  80.512 -11.293  1.00  0.00     0.112 C 
HETATM   19  C12         0      36.072  81.288 -10.305  1.00  0.00     0.028 C 
BRANCH  17  20
HETATM   20  O9          0      36.544  80.213 -13.716  1.00  0.00    -0.357 OA
HETATM   21  H9          0      36.224  79.661 -14.420  1.00  0.00     0.218 HD
ENDBRANCH  17  20
BRANCH  18  22
HETATM   22  O11         0      38.036  80.288 -11.332  1.00  0.00    -0.357 OA
HETATM   23  H11         0      38.426  80.156 -12.188  1.00  0.00     0.218 HD
ENDBRANCH  18  22
ENDBRANCH   4  14
BRANCH   8  24
HETATM   24  O17         0      30.200  86.536 -11.864  1.00  0.00    -0.359 OA
HETATM   25  H17         0      30.534  86.666 -12.743  1.00  0.00     0.218 HD
ENDBRANCH   8  24
TORSDOF 5
ENDMDL
MODEL 6
REMARK VINA RESULT:      -7.7      3.356      6.902
REMARK  5 active torsions:
REMARK  status: ('A' for Active; 'I' for Inactive)
REMARK    1  A    between atoms: C4_4  and  C5_5 
REMARK    2  A    between atoms: C8_8  and  O9_9 
REMARK    3  A    between atoms: C10_11  and  O11_12 
REMARK    4  A    between atoms: C16_18  and  O17_19 
REMARK    5  A    between atoms: C19_22  and  O20_23 
ROOT
HETATM    1  O1          0      34.538  88.314 -10.324  1.00  0.00    -0.286 OA
HETATM    2  C2          0      33.332  88.031 -10.084  1.00  0.00     0.201 C 
HETATM    3  C3          0      32.945  86.848  -9.478  1.00  0.00     0.067 C 
HETATM    4  C4          0      31.604  86.516  -9.319  1.00  0.00     0.103 C 
HETATM    5  O13         0      30.685  87.366  -9.740  1.00  0.00    -0.307 OA
HETATM    6  C14         0      30.998  88.486 -10.354  1.00  0.00     0.107 C 
HETATM    7  C15         0      30.080  89.171 -11.137  1.00  0.00     0.049 C 
HETATM    8  C16         0      30.478  90.201 -11.982  1.00  0.00     0.093 C 
HETATM    9  C18         0      31.659  90.835 -11.617  1.00  0.00     0.048 C 
HETATM   10  C19         0      32.579  90.197 -10.796  1.00  0.00     0.096 C 
HETATM   11  C21         0      32.312  88.939 -10.328  1.00  0.00     0.084 C 
ENDROOT
BRANCH  10  12
HETATM   12  O20         0      33.902  90.628 -10.792  1.00  0.00    -0.359 OA
HETATM   13  H20         0      34.380  90.603 -11.612  1.00  0.00     0.218 HD
ENDBRANCH  10  12
BRANCH   4  14
HETATM   14  C5          0      31.270  85.092  -9.254  1.00  0.00     0.025 C 
HETATM   15  C6          0      31.938  84.128  -9.996  1.00  0.00     0.004 C 
HETATM   16  C7          0      32.184  82.902  -9.387  1.00  0.00     0.026 C 
HETATM   17  C8          0      31.667  82.593  -8.133  1.00  0.00     0.112 C 
HETATM   18  C10         0      30.540  83.321  -7.776  1.00  0.00     0.112 C 
HETATM   19  C12         0      30.363  84.581  -8.335  1.00  0.00     0.028 C 
BRANCH  17  20
HETATM   20  O9          0      32.366  81.781  -7.259  1.00  0.00    -0.357 OA
HETATM   21  H9          0      32.949  82.110  -6.584  1.00  0.00     0.218 HD
ENDBRANCH  17  20
BRANCH  18  22
HETATM   22  O11         0      29.875  82.924  -6.624  1.00  0.00    -0.357 OA
HETATM   23  H11         0      28.928  83.000  -6.627  1.00  0.00     0.218 HD
ENDBRANCH  18  22
ENDBRANCH   4  14
BRANCH   8  24
HETATM   24  O17         0      29.925  90.352 -13.258  1.00  0.00    -0.359 OA
HETATM   25  H17         0      29.000  90.214 -13.421  1.00  0.00     0.218 HD
ENDBRANCH   8  24
TORSDOF 5
ENDMDL
MODEL 7
REMARK VINA RESULT:      -7.4      1.922      6.599
REMARK  5 active torsions:
REMARK  status: ('A' for Active; 'I' for Inactive)
REMARK    1  A    between atoms: C4_4  and  C5_5 
REMARK    2  A    between atoms: C8_8  and  O9_9 
REMARK    3  A    between atoms: C10_11  and  O11_12 
REMARK    4  A    between atoms: C16_18  and  O17_19 
REMARK    5  A    between atoms: C19_22  and  O20_23 
ROOT
HETATM    1  O1          0      35.093  88.501 -10.369  1.00  0.00    -0.286 OA
HETATM    2  C2          0      34.195  87.633 -10.186  1.00  0.00     0.201 C 
HETATM    3  C3          0      34.474  86.339  -9.780  1.00  0.00     0.067 C 
HETATM    4  C4          0      33.478  85.375  -9.685  1.00  0.00     0.103 C 
HETATM    5  O13         0      32.234  85.716  -9.973  1.00  0.00    -0.307 OA
HETATM    6  C14         0      31.921  86.920 -10.399  1.00  0.00     0.107 C 
HETATM    7  C15         0      30.733  87.171 -11.071  1.00  0.00     0.049 C 
HETATM    8  C16         0      30.521  88.372 -11.738  1.00  0.00     0.093 C 
HETATM    9  C18         0      31.270  89.444 -11.268  1.00  0.00     0.048 C 
HETATM   10  C19         0      32.439  89.228 -10.552  1.00  0.00     0.096 C 
HETATM   11  C21         0      32.849  87.949 -10.292  1.00  0.00     0.084 C 
ENDROOT
BRANCH  10  12
HETATM   12  O20         0      33.384  90.246 -10.469  1.00  0.00    -0.359 OA
HETATM   13  H20         0      33.925  90.290  -9.690  1.00  0.00     0.218 HD
ENDBRANCH  10  12
BRANCH   4  14
HETATM   14  C5          0      33.881  83.977  -9.850  1.00  0.00     0.025 C 
HETATM   15  C6          0      34.700  83.547 -10.884  1.00  0.00     0.004 C 
HETATM   16  C7          0      35.643  82.566 -10.595  1.00  0.00     0.026 C 
HETATM   17  C8          0      35.683  81.936  -9.356  1.00  0.00     0.112 C 
HETATM   18  C10         0      34.486  81.963  -8.653  1.00  0.00     0.112 C 
HETATM   19  C12         0      33.598  83.003  -8.901  1.00  0.00     0.028 C 
BRANCH  17  20
HETATM   20  O9          0      36.884  81.517  -8.812  1.00  0.00    -0.357 OA
HETATM   21  H9          0      37.734  81.795  -9.133  1.00  0.00     0.218 HD
ENDBRANCH  17  20
BRANCH  18  22
HETATM   22  O11         0      34.415  81.191  -7.502  1.00  0.00    -0.357 OA
HETATM   23  H11         0      34.854  80.349  -7.522  1.00  0.00     0.218 HD
ENDBRANCH  18  22
ENDBRANCH   4  14
BRANCH   8  24
HETATM   24  O17         0      29.876  88.413 -12.979  1.00  0.00    -0.359 OA
HETATM   25  H17         0      30.239  87.986 -13.745  1.00  0.00     0.218 HD
ENDBRANCH   8  24
TORSDOF 5
ENDMDL
MODEL 8
REMARK VINA RESULT:      -7.3     10.732     12.505
REMARK  5 active torsions:
REMARK  status: ('A' for Active; 'I' for Inactive)
REMARK    1  A    between atoms: C4_4  and  C5_5 
REMARK    2  A    between atoms: C8_8  and  O9_9 
REMARK    3  A    between atoms: C10_11  and  O11_12 
REMARK    4  A    between atoms: C16_18  and  O17_19 
REMARK    5  A    between atoms: C19_22  and  O20_23 
ROOT
HETATM    1  O1          0      43.704  88.439 -13.300  1.00  0.00    -0.286 OA
HETATM    2  C2          0      44.471  87.766 -12.558  1.00  0.00     0.201 C 
HETATM    3  C3          0      44.899  88.212 -11.320  1.00  0.00     0.067 C 
HETATM    4  C4          0      45.824  87.497 -10.567  1.00  0.00     0.103 C 
HETATM    5  O13         0      46.285  86.355 -11.046  1.00  0.00    -0.307 OA
HETATM    6  C14         0      45.940  85.904 -12.232  1.00  0.00     0.107 C 
HETATM    7  C15         0      46.695  84.951 -12.901  1.00  0.00     0.049 C 
HETATM    8  C16         0      46.475  84.668 -14.243  1.00  0.00     0.093 C 
HETATM    9  C18         0      45.196  84.957 -14.702  1.00  0.00     0.048 C 
HETATM   10  C19         0      44.395  85.871 -14.031  1.00  0.00     0.096 C 
HETATM   11  C21         0      44.863  86.480 -12.898  1.00  0.00     0.084 C 
ENDROOT
BRANCH  10  12
HETATM   12  O20         0      43.337  86.472 -14.705  1.00  0.00    -0.359 OA
HETATM   13  H20         0      42.553  85.957 -14.852  1.00  0.00     0.218 HD
ENDBRANCH  10  12
BRANCH   4  14
HETATM   14  C5          0      46.657  88.256  -9.632  1.00  0.00     0.025 C 
HETATM   15  C6          0      46.434  89.594  -9.343  1.00  0.00     0.004 C 
HETATM   16  C7          0      46.626  90.010  -8.029  1.00  0.00     0.026 C 
HETATM   17  C8          0      47.150  89.158  -7.063  1.00  0.00     0.112 C 
HETATM   18  C10         0      47.907  88.108  -7.566  1.00  0.00     0.112 C 
HETATM   19  C12         0      47.637  87.656  -8.852  1.00  0.00     0.028 C 
BRANCH  17  20
HETATM   20  O9          0      46.753  89.255  -5.741  1.00  0.00    -0.357 OA
HETATM   21  H9          0      47.318  89.054  -5.004  1.00  0.00     0.218 HD
ENDBRANCH  17  20
BRANCH  18  22
HETATM   22  O11         0      48.607  87.341  -6.646  1.00  0.00    -0.357 OA
HETATM   23  H11         0      48.504  87.569  -5.729  1.00  0.00     0.218 HD
ENDBRANCH  18  22
ENDBRANCH   4  14
BRANCH   8  24
HETATM   24  O17         0      47.539  84.438 -15.123  1.00  0.00    -0.359 OA
HETATM   25  H17         0      48.030  85.152 -15.511  1.00  0.00     0.218 HD
ENDBRANCH   8  24
TORSDOF 5
ENDMDL
MODEL 9
REMARK VINA RESULT:      -7.3     10.444     11.794
REMARK  5 active torsions:
REMARK  status: ('A' for Active; 'I' for Inactive)
REMARK    1  A    between atoms: C4_4  and  C5_5 
REMARK    2  A    between atoms: C8_8  and  O9_9 
REMARK    3  A    between atoms: C10_11  and  O11_12 
REMARK    4  A    between atoms: C16_18  and  O17_19 
REMARK    5  A    between atoms: C19_22  and  O20_23 
ROOT
HETATM    1  O1          0      45.267  87.270  -9.574  1.00  0.00    -0.286 OA
HETATM    2  C2          0      45.844  86.573 -10.454  1.00  0.00     0.201 C 
HETATM    3  C3          0      45.632  86.751 -11.811  1.00  0.00     0.067 C 
HETATM    4  C4          0      46.201  85.903 -12.754  1.00  0.00     0.103 C 
HETATM    5  O13         0      46.978  84.919 -12.337  1.00  0.00    -0.307 OA
HETATM    6  C14         0      47.182  84.684 -11.060  1.00  0.00     0.107 C 
HETATM    7  C15         0      47.646  83.456 -10.608  1.00  0.00     0.049 C 
HETATM    8  C16         0      47.618  83.127  -9.258  1.00  0.00     0.093 C 
HETATM    9  C18         0      47.624  84.211  -8.389  1.00  0.00     0.048 C 
HETATM   10  C19         0      47.211  85.464  -8.821  1.00  0.00     0.096 C 
HETATM   11  C21         0      46.810  85.637 -10.118  1.00  0.00     0.084 C 
ENDROOT
BRANCH  10  12
HETATM   12  O20         0      46.807  86.408  -7.882  1.00  0.00    -0.359 OA
HETATM   13  H20         0      47.322  86.495  -7.089  1.00  0.00     0.218 HD
ENDBRANCH  10  12
BRANCH   4  14
HETATM   14  C5          0      45.499  85.754 -14.030  1.00  0.00     0.025 C 
HETATM   15  C6          0      45.632  84.632 -14.835  1.00  0.00     0.004 C 
HETATM   16  C7          0      44.495  84.171 -15.491  1.00  0.00     0.026 C 
HETATM   17  C8          0      43.296  84.876 -15.457  1.00  0.00     0.112 C 
HETATM   18  C10         0      43.429  86.232 -15.189  1.00  0.00     0.112 C 
HETATM   19  C12         0      44.533  86.656 -14.458  1.00  0.00     0.028 C 
BRANCH  17  20
HETATM   20  O9          0      42.083  84.213 -15.479  1.00  0.00    -0.357 OA
HETATM   21  H9          0      41.981  83.306 -15.745  1.00  0.00     0.218 HD
ENDBRANCH  17  20
BRANCH  18  22
HETATM   22  O11         0      42.292  87.015 -15.330  1.00  0.00    -0.357 OA
HETATM   23  H11         0      42.334  87.900 -14.987  1.00  0.00     0.218 HD
ENDBRANCH  18  22
ENDBRANCH   4  14
BRANCH   8  24
HETATM   24  O17         0      47.270  81.841  -8.829  1.00  0.00    -0.359 OA
HETATM   25  H17         0      46.711  81.701  -8.074  1.00  0.00     0.218 HD
ENDBRANCH   8  24
TORSDOF 5
ENDMDL
