MODEL 1
REMARK VINA RESULT:      -3.6      0.000      0.000
REMARK  5 active torsions:
REMARK  status: ('A' for Active; 'I' for Inactive)
REMARK    1  A    between atoms: C4_4  and  C5_5 
REMARK    2  A    between atoms: C8_8  and  O9_9 
REMARK    3  A    between atoms: C10_11  and  O11_12 
REMARK    4  A    between atoms: C16_18  and  O17_19 
REMARK    5  A    between atoms: C19_22  and  O20_23 
ROOT
HETATM    1  O1          0      54.517   0.880 -21.175  1.00  0.00    -0.286 OA
HETATM    2  C2          0      53.393   0.541 -20.715  1.00  0.00     0.201 C 
HETATM    3  C3          0      52.960  -0.774 -20.684  1.00  0.00     0.067 C 
HETATM    4  C4          0      51.677  -1.110 -20.268  1.00  0.00     0.103 C 
HETATM    5  O13         0      50.864  -0.144 -19.875  1.00  0.00    -0.307 OA
HETATM    6  C14         0      51.212   1.123 -19.921  1.00  0.00     0.107 C 
HETATM    7  C15         0      50.268   2.141 -19.901  1.00  0.00     0.049 C 
HETATM    8  C16         0      50.615   3.452 -20.203  1.00  0.00     0.093 C 
HETATM    9  C18         0      51.952   3.768 -19.996  1.00  0.00     0.048 C 
HETATM   10  C19         0      52.917   2.770 -19.963  1.00  0.00     0.096 C 
HETATM   11  C21         0      52.546   1.463 -20.119  1.00  0.00     0.084 C 
ENDROOT
BRANCH  10  12
HETATM   12  O20         0      54.248   3.103 -20.194  1.00  0.00    -0.359 OA
HETATM   13  H20         0      54.430   3.860 -20.737  1.00  0.00     0.218 HD
ENDBRANCH  10  12
BRANCH   4  14
HETATM   14  C5          0      51.098  -2.342 -20.806  1.00  0.00     0.025 C 
HETATM   15  C6          0      50.760  -2.492 -22.143  1.00  0.00     0.004 C 
HETATM   16  C7          0      51.000  -3.729 -22.734  1.00  0.00     0.026 C 
HETATM   17  C8          0      51.435  -4.820 -21.990  1.00  0.00     0.112 C 
HETATM   18  C10         0      51.136  -4.755 -20.635  1.00  0.00     0.112 C 
HETATM   19  C12         0      50.985  -3.503 -20.052  1.00  0.00     0.028 C 
BRANCH  17  20
HETATM   20  O9          0      52.277  -5.767 -22.546  1.00  0.00    -0.357 OA
HETATM   21  H9          0      51.978  -6.477 -23.103  1.00  0.00     0.218 HD
ENDBRANCH  17  20
BRANCH  18  22
HETATM   22  O11         0      51.377  -5.896 -19.883  1.00  0.00    -0.357 OA
HETATM   23  H11         0      52.251  -5.997 -19.524  1.00  0.00     0.218 HD
ENDBRANCH  18  22
ENDBRANCH   4  14
BRANCH   8  24
HETATM   24  O17         0      49.775   4.271 -20.966  1.00  0.00    -0.359 OA
HETATM   25  H17         0      49.999   5.173 -21.160  1.00  0.00     0.218 HD
ENDBRANCH   8  24
TORSDOF 5
ENDMDL
MODEL 2
REMARK VINA RESULT:      -3.5      1.448      1.497
REMARK  5 active torsions:
REMARK  status: ('A' for Active; 'I' for Inactive)
REMARK    1  A    between atoms: C4_4  and  C5_5 
REMARK    2  A    between atoms: C8_8  and  O9_9 
REMARK    3  A    between atoms: C10_11  and  O11_12 
REMARK    4  A    between atoms: C16_18  and  O17_19 
REMARK    5  A    between atoms: C19_22  and  O20_23 
ROOT
HETATM    1  O1          0      53.985   2.024 -23.248  1.00  0.00    -0.286 OA
HETATM    2  C2          0      53.345   1.396 -22.361  1.00  0.00     0.201 C 
HETATM    3  C3          0      53.363   0.015 -22.259  1.00  0.00     0.067 C 
HETATM    4  C4          0      52.568  -0.657 -21.338  1.00  0.00     0.103 C 
HETATM    5  O13         0      51.795   0.048 -20.531  1.00  0.00    -0.307 OA
HETATM    6  C14         0      51.712   1.358 -20.612  1.00  0.00     0.107 C 
HETATM    7  C15         0      50.643   2.058 -20.071  1.00  0.00     0.049 C 
HETATM    8  C16         0      50.428   3.397 -20.375  1.00  0.00     0.093 C 
HETATM    9  C18         0      51.562   4.098 -20.770  1.00  0.00     0.048 C 
HETATM   10  C19         0      52.668   3.425 -21.272  1.00  0.00     0.096 C 
HETATM   11  C21         0      52.649   2.060 -21.363  1.00  0.00     0.084 C 
ENDROOT
BRANCH  10  12
HETATM   12  O20         0      53.589   4.118 -22.050  1.00  0.00    -0.359 OA
HETATM   13  H20         0      54.333   3.638 -22.394  1.00  0.00     0.218 HD
ENDBRANCH  10  12
BRANCH   4  14
HETATM   14  C5          0      52.177  -2.030 -21.666  1.00  0.00     0.025 C 
HETATM   15  C6          0      51.794  -2.417 -22.942  1.00  0.00     0.004 C 
HETATM   16  C7          0      52.206  -3.670 -23.385  1.00  0.00     0.026 C 
HETATM   17  C8          0      52.861  -4.563 -22.544  1.00  0.00     0.112 C 
HETATM   18  C10         0      52.631  -4.358 -21.190  1.00  0.00     0.112 C 
HETATM   19  C12         0      52.304  -3.076 -20.762  1.00  0.00     0.028 C 
BRANCH  17  20
HETATM   20  O9          0      53.818  -5.431 -23.038  1.00  0.00    -0.357 OA
HETATM   21  H9          0      53.621  -6.296 -23.378  1.00  0.00     0.218 HD
ENDBRANCH  17  20
BRANCH  18  22
HETATM   22  O11         0      53.104  -5.329 -20.318  1.00  0.00    -0.357 OA
HETATM   23  H11         0      53.576  -5.025 -19.552  1.00  0.00     0.218 HD
ENDBRANCH  18  22
ENDBRANCH   4  14
BRANCH   8  24
HETATM   24  O17         0      49.140   3.898 -20.592  1.00  0.00    -0.359 OA
HETATM   25  H17         0      48.989   4.677 -21.114  1.00  0.00     0.218 HD
ENDBRANCH   8  24
TORSDOF 5
ENDMDL
MODEL 3
REMARK VINA RESULT:      -3.5      1.989      2.766
REMARK  5 active torsions:
REMARK  status: ('A' for Active; 'I' for Inactive)
REMARK    1  A    between atoms: C4_4  and  C5_5 
REMARK    2  A    between atoms: C8_8  and  O9_9 
REMARK    3  A    between atoms: C10_11  and  O11_12 
REMARK    4  A    between atoms: C16_18  and  O17_19 
REMARK    5  A    between atoms: C19_22  and  O20_23 
ROOT
HETATM    1  O1          0      52.556  -0.998 -24.230  1.00  0.00    -0.286 OA
HETATM    2  C2          0      52.674  -1.252 -22.999  1.00  0.00     0.201 C 
HETATM    3  C3          0      52.566  -2.533 -22.484  1.00  0.00     0.067 C 
HETATM    4  C4          0      52.597  -2.772 -21.115  1.00  0.00     0.103 C 
HETATM    5  O13         0      52.753  -1.748 -20.295  1.00  0.00    -0.307 OA
HETATM    6  C14         0      52.822  -0.509 -20.729  1.00  0.00     0.107 C 
HETATM    7  C15         0      52.584   0.573 -19.894  1.00  0.00     0.049 C 
HETATM    8  C16         0      52.407   1.853 -20.404  1.00  0.00     0.093 C 
HETATM    9  C18         0      52.989   2.076 -21.646  1.00  0.00     0.048 C 
HETATM   10  C19         0      53.284   1.013 -22.488  1.00  0.00     0.096 C 
HETATM   11  C21         0      53.014  -0.267 -22.085  1.00  0.00     0.084 C 
ENDROOT
BRANCH  10  12
HETATM   12  O20         0      53.445   1.248 -23.850  1.00  0.00    -0.359 OA
HETATM   13  H20         0      52.676   1.197 -24.405  1.00  0.00     0.218 HD
ENDBRANCH  10  12
BRANCH   4  14
HETATM   14  C5          0      51.903  -3.966 -20.628  1.00  0.00     0.025 C 
HETATM   15  C6          0      50.739  -3.904 -19.876  1.00  0.00     0.004 C 
HETATM   16  C7          0      49.761  -4.863 -20.121  1.00  0.00     0.026 C 
HETATM   17  C8          0      49.985  -5.927 -20.988  1.00  0.00     0.112 C 
HETATM   18  C10         0      51.322  -6.249 -21.178  1.00  0.00     0.112 C 
HETATM   19  C12         0      52.272  -5.249 -21.009  1.00  0.00     0.028 C 
BRANCH  17  20
HETATM   20  O9          0      48.952  -6.455 -21.743  1.00  0.00    -0.357 OA
HETATM   21  H9          0      48.391  -7.163 -21.447  1.00  0.00     0.218 HD
ENDBRANCH  17  20
BRANCH  18  22
HETATM   22  O11         0      51.594  -7.415 -21.880  1.00  0.00    -0.357 OA
HETATM   23  H11         0      51.030  -7.614 -22.619  1.00  0.00     0.218 HD
ENDBRANCH  18  22
ENDBRANCH   4  14
BRANCH   8  24
HETATM   24  O17         0      51.446   2.722 -19.875  1.00  0.00    -0.359 OA
HETATM   25  H17         0      50.815   3.165 -20.430  1.00  0.00     0.218 HD
ENDBRANCH   8  24
TORSDOF 5
ENDMDL
MODEL 4
REMARK VINA RESULT:      -3.5      1.528      1.976
REMARK  5 active torsions:
REMARK  status: ('A' for Active; 'I' for Inactive)
REMARK    1  A    between atoms: C4_4  and  C5_5 
REMARK    2  A    between atoms: C8_8  and  O9_9 
REMARK    3  A    between atoms: C10_11  and  O11_12 
REMARK    4  A    between atoms: C16_18  and  O17_19 
REMARK    5  A    between atoms: C19_22  and  O20_23 
ROOT
HETATM    1  O1          0      54.414   0.383 -20.904  1.00  0.00    -0.286 OA
HETATM    2  C2          0      53.252   0.062 -20.533  1.00  0.00     0.201 C 
HETATM    3  C3          0      52.808  -1.250 -20.507  1.00  0.00     0.067 C 
HETATM    4  C4          0      51.492  -1.567 -20.192  1.00  0.00     0.103 C 
HETATM    5  O13         0      50.657  -0.588 -19.893  1.00  0.00    -0.307 OA
HETATM    6  C14         0      51.016   0.676 -19.939  1.00  0.00     0.107 C 
HETATM    7  C15         0      50.083   1.699 -20.022  1.00  0.00     0.049 C 
HETATM    8  C16         0      50.463   3.000 -20.326  1.00  0.00     0.093 C 
HETATM    9  C18         0      51.781   3.314 -20.014  1.00  0.00     0.048 C 
HETATM   10  C19         0      52.731   2.312 -19.877  1.00  0.00     0.096 C 
HETATM   11  C21         0      52.365   1.003 -20.033  1.00  0.00     0.084 C 
ENDROOT
BRANCH  10  12
HETATM   12  O20         0      54.080   2.631 -20.002  1.00  0.00    -0.359 OA
HETATM   13  H20         0      54.549   2.294 -20.756  1.00  0.00     0.218 HD
ENDBRANCH  10  12
BRANCH   4  14
HETATM   14  C5          0      50.952  -2.809 -20.748  1.00  0.00     0.025 C 
HETATM   15  C6          0      51.437  -4.062 -20.402  1.00  0.00     0.004 C 
HETATM   16  C7          0      50.515  -5.095 -20.263  1.00  0.00     0.026 C 
HETATM   17  C8          0      49.174  -4.924 -20.588  1.00  0.00     0.112 C 
HETATM   18  C10         0      48.922  -3.898 -21.489  1.00  0.00     0.112 C 
HETATM   19  C12         0      49.816  -2.835 -21.547  1.00  0.00     0.028 C 
BRANCH  17  20
HETATM   20  O9          0      48.185  -5.594 -19.891  1.00  0.00    -0.357 OA
HETATM   21  H9          0      47.492  -5.158 -19.407  1.00  0.00     0.218 HD
ENDBRANCH  17  20
BRANCH  18  22
HETATM   22  O11         0      47.632  -3.805 -21.991  1.00  0.00    -0.357 OA
HETATM   23  H11         0      47.404  -3.003 -22.447  1.00  0.00     0.218 HD
ENDBRANCH  18  22
ENDBRANCH   4  14
BRANCH   8  24
HETATM   24  O17         0      49.696   3.805 -21.176  1.00  0.00    -0.359 OA
HETATM   25  H17         0      49.602   3.607 -22.100  1.00  0.00     0.218 HD
ENDBRANCH   8  24
TORSDOF 5
ENDMDL
MODEL 5
REMARK VINA RESULT:      -3.5      1.917      6.996
REMARK  5 active torsions:
REMARK  status: ('A' for Active; 'I' for Inactive)
REMARK    1  A    between atoms: C4_4  and  C5_5 
REMARK    2  A    between atoms: C8_8  and  O9_9 
REMARK    3  A    between atoms: C10_11  and  O11_12 
REMARK    4  A    between atoms: C16_18  and  O17_19 
REMARK    5  A    between atoms: C19_22  and  O20_23 
ROOT
HETATM    1  O1          0      48.029  -2.389 -21.897  1.00  0.00    -0.286 OA
HETATM    2  C2          0      49.082  -2.496 -21.211  1.00  0.00     0.201 C 
HETATM    3  C3          0      49.719  -1.408 -20.638  1.00  0.00     0.067 C 
HETATM    4  C4          0      50.933  -1.541 -19.974  1.00  0.00     0.103 C 
HETATM    5  O13         0      51.474  -2.742 -19.875  1.00  0.00    -0.307 OA
HETATM    6  C14         0      50.931  -3.802 -20.433  1.00  0.00     0.107 C 
HETATM    7  C15         0      51.663  -4.954 -20.680  1.00  0.00     0.049 C 
HETATM    8  C16         0      51.163  -5.967 -21.491  1.00  0.00     0.093 C 
HETATM    9  C18         0      49.777  -6.016 -21.581  1.00  0.00     0.048 C 
HETATM   10  C19         0      49.011  -4.894 -21.295  1.00  0.00     0.096 C 
HETATM   11  C21         0      49.624  -3.735 -20.905  1.00  0.00     0.084 C 
ENDROOT
BRANCH  10  12
HETATM   12  O20         0      47.714  -4.811 -21.793  1.00  0.00    -0.359 OA
HETATM   13  H20         0      47.488  -4.054 -22.319  1.00  0.00     0.218 HD
ENDBRANCH  10  12
BRANCH   4  14
HETATM   14  C5          0      51.809  -0.368 -19.938  1.00  0.00     0.025 C 
HETATM   15  C6          0      53.183  -0.451 -20.106  1.00  0.00     0.004 C 
HETATM   16  C7          0      53.805   0.559 -20.833  1.00  0.00     0.026 C 
HETATM   17  C8          0      53.109   1.684 -21.263  1.00  0.00     0.112 C 
HETATM   18  C10         0      51.965   1.972 -20.530  1.00  0.00     0.112 C 
HETATM   19  C12         0      51.314   0.928 -19.883  1.00  0.00     0.028 C 
BRANCH  17  20
HETATM   20  O9          0      53.438   2.310 -22.452  1.00  0.00    -0.357 OA
HETATM   21  H9          0      53.898   3.139 -22.502  1.00  0.00     0.218 HD
ENDBRANCH  17  20
BRANCH  18  22
HETATM   22  O11         0      51.339   3.182 -20.793  1.00  0.00    -0.357 OA
HETATM   23  H11         0      50.596   3.410 -20.246  1.00  0.00     0.218 HD
ENDBRANCH  18  22
ENDBRANCH   4  14
BRANCH   8  24
HETATM   24  O17         0      51.984  -6.648 -22.396  1.00  0.00    -0.359 OA
HETATM   25  H17         0      52.701  -6.215 -22.844  1.00  0.00     0.218 HD
ENDBRANCH   8  24
TORSDOF 5
ENDMDL
MODEL 6
REMARK VINA RESULT:      -3.4      2.421      6.968
REMARK  5 active torsions:
REMARK  status: ('A' for Active; 'I' for Inactive)
REMARK    1  A    between atoms: C4_4  and  C5_5 
REMARK    2  A    between atoms: C8_8  and  O9_9 
REMARK    3  A    between atoms: C10_11  and  O11_12 
REMARK    4  A    between atoms: C16_18  and  O17_19 
REMARK    5  A    between atoms: C19_22  and  O20_23 
ROOT
HETATM    1  O1          0      52.127  -1.211 -25.712  1.00  0.00    -0.286 OA
HETATM    2  C2          0      51.851  -1.109 -24.485  1.00  0.00     0.201 C 
HETATM    3  C3          0      51.471   0.085 -23.898  1.00  0.00     0.067 C 
HETATM    4  C4          0      51.272   0.193 -22.527  1.00  0.00     0.103 C 
HETATM    5  O13         0      51.434  -0.883 -21.776  1.00  0.00    -0.307 OA
HETATM    6  C14         0      51.831  -2.032 -22.277  1.00  0.00     0.107 C 
HETATM    7  C15         0      52.379  -3.026 -21.480  1.00  0.00     0.049 C 
HETATM    8  C16         0      53.026  -4.123 -22.038  1.00  0.00     0.093 C 
HETATM    9  C18         0      52.637  -4.436 -23.335  1.00  0.00     0.048 C 
HETATM   10  C19         0      52.042  -3.478 -24.144  1.00  0.00     0.096 C 
HETATM   11  C21         0      51.821  -2.219 -23.655  1.00  0.00     0.084 C 
ENDROOT
BRANCH  10  12
HETATM   12  O20         0      52.060  -3.648 -25.525  1.00  0.00    -0.359 OA
HETATM   13  H20         0      51.542  -3.052 -26.053  1.00  0.00     0.218 HD
ENDBRANCH  10  12
BRANCH   4  14
HETATM   14  C5          0      51.472   1.511 -21.922  1.00  0.00     0.025 C 
HETATM   15  C6          0      51.177   1.781 -20.594  1.00  0.00     0.004 C 
HETATM   16  C7          0      52.039   2.625 -19.901  1.00  0.00     0.026 C 
HETATM   17  C8          0      53.084   3.285 -20.539  1.00  0.00     0.112 C 
HETATM   18  C10         0      52.913   3.455 -21.906  1.00  0.00     0.112 C 
HETATM   19  C12         0      52.113   2.547 -22.590  1.00  0.00     0.028 C 
BRANCH  17  20
HETATM   20  O9          0      54.270   3.543 -19.875  1.00  0.00    -0.357 OA
HETATM   21  H9          0      54.688   4.396 -19.854  1.00  0.00     0.218 HD
ENDBRANCH  17  20
BRANCH  18  22
HETATM   22  O11         0      53.829   4.268 -22.558  1.00  0.00    -0.357 OA
HETATM   23  H11         0      53.974   4.098 -23.482  1.00  0.00     0.218 HD
ENDBRANCH  18  22
ENDBRANCH   4  14
BRANCH   8  24
HETATM   24  O17         0      54.195  -4.645 -21.473  1.00  0.00    -0.359 OA
HETATM   25  H17         0      54.587  -4.264 -20.697  1.00  0.00     0.218 HD
ENDBRANCH   8  24
TORSDOF 5
ENDMDL
MODEL 7
REMARK VINA RESULT:      -3.2      1.731      1.964
REMARK  5 active torsions:
REMARK  status: ('A' for Active; 'I' for Inactive)
REMARK    1  A    between atoms: C4_4  and  C5_5 
REMARK    2  A    between atoms: C8_8  and  O9_9 
REMARK    3  A    between atoms: C10_11  and  O11_12 
REMARK    4  A    between atoms: C16_18  and  O17_19 
REMARK    5  A    between atoms: C19_22  and  O20_23 
ROOT
HETATM    1  O1          0      54.474   1.288 -20.931  1.00  0.00    -0.286 OA
HETATM    2  C2          0      53.301   0.828 -20.858  1.00  0.00     0.201 C 
HETATM    3  C3          0      53.011  -0.398 -20.284  1.00  0.00     0.067 C 
HETATM    4  C4          0      51.725  -0.927 -20.308  1.00  0.00     0.103 C 
HETATM    5  O13         0      50.761  -0.226 -20.877  1.00  0.00    -0.307 OA
HETATM    6  C14         0      50.989   0.926 -21.469  1.00  0.00     0.107 C 
HETATM    7  C15         0      50.103   1.462 -22.392  1.00  0.00     0.049 C 
HETATM    8  C16         0      50.462   2.537 -23.197  1.00  0.00     0.093 C 
HETATM    9  C18         0      51.471   3.343 -22.684  1.00  0.00     0.048 C 
HETATM   10  C19         0      52.346   2.853 -21.725  1.00  0.00     0.096 C 
HETATM   11  C21         0      52.205   1.571 -21.268  1.00  0.00     0.084 C 
ENDROOT
BRANCH  10  12
HETATM   12  O20         0      53.576   3.478 -21.544  1.00  0.00    -0.359 OA
HETATM   13  H20         0      53.698   4.003 -20.762  1.00  0.00     0.218 HD
ENDBRANCH  10  12
BRANCH   4  14
HETATM   14  C5          0      51.600  -2.384 -20.255  1.00  0.00     0.025 C 
HETATM   15  C6          0      50.428  -3.026 -19.879  1.00  0.00     0.004 C 
HETATM   16  C7          0      50.084  -4.189 -20.559  1.00  0.00     0.026 C 
HETATM   17  C8          0      50.939  -4.771 -21.489  1.00  0.00     0.112 C 
HETATM   18  C10         0      52.279  -4.444 -21.329  1.00  0.00     0.112 C 
HETATM   19  C12         0      52.595  -3.234 -20.721  1.00  0.00     0.028 C 
BRANCH  17  20
HETATM   20  O9          0      50.438  -5.440 -22.592  1.00  0.00    -0.357 OA
HETATM   21  H9          0      50.737  -5.290 -23.481  1.00  0.00     0.218 HD
ENDBRANCH  17  20
BRANCH  18  22
HETATM   22  O11         0      53.193  -5.141 -22.105  1.00  0.00    -0.357 OA
HETATM   23  H11         0      52.968  -5.276 -23.018  1.00  0.00     0.218 HD
ENDBRANCH  18  22
ENDBRANCH   4  14
BRANCH   8  24
HETATM   24  O17         0      50.083   2.598 -24.543  1.00  0.00    -0.359 OA
HETATM   25  H17         0      49.589   3.331 -24.889  1.00  0.00     0.218 HD
ENDBRANCH   8  24
TORSDOF 5
ENDMDL
MODEL 8
REMARK VINA RESULT:      -3.0      2.307      6.769
REMARK  5 active torsions:
REMARK  status: ('A' for Active; 'I' for Inactive)
REMARK    1  A    between atoms: C4_4  and  C5_5 
REMARK    2  A    between atoms: C8_8  and  O9_9 
REMARK    3  A    between atoms: C10_11  and  O11_12 
REMARK    4  A    between atoms: C16_18  and  O17_19 
REMARK    5  A    between atoms: C19_22  and  O20_23 
ROOT
HETATM    1  O1          0      48.967  -1.458 -20.919  1.00  0.00    -0.286 OA
HETATM    2  C2          0      50.227  -1.481 -20.870  1.00  0.00     0.201 C 
HETATM    3  C3          0      51.008  -0.360 -21.096  1.00  0.00     0.067 C 
HETATM    4  C4          0      52.395  -0.435 -21.138  1.00  0.00     0.103 C 
HETATM    5  O13         0      52.974  -1.606 -20.935  1.00  0.00    -0.307 OA
HETATM    6  C14         0      52.279  -2.707 -20.754  1.00  0.00     0.107 C 
HETATM    7  C15         0      52.838  -3.964 -20.940  1.00  0.00     0.049 C 
HETATM    8  C16         0      52.047  -5.104 -20.998  1.00  0.00     0.093 C 
HETATM    9  C18         0      50.821  -5.001 -20.352  1.00  0.00     0.048 C 
HETATM   10  C19         0      50.254  -3.758 -20.107  1.00  0.00     0.096 C 
HETATM   11  C21         0      50.916  -2.623 -20.490  1.00  0.00     0.084 C 
ENDROOT
BRANCH  10  12
HETATM   12  O20         0      48.885  -3.667 -19.875  1.00  0.00    -0.359 OA
HETATM   13  H20         0      48.561  -3.927 -19.021  1.00  0.00     0.218 HD
ENDBRANCH  10  12
BRANCH   4  14
HETATM   14  C5          0      53.097   0.568 -21.940  1.00  0.00     0.025 C 
HETATM   15  C6          0      53.662   0.283 -23.174  1.00  0.00     0.004 C 
HETATM   16  C7          0      53.567   1.253 -24.167  1.00  0.00     0.026 C 
HETATM   17  C8          0      53.047   2.516 -23.905  1.00  0.00     0.112 C 
HETATM   18  C10         0      53.109   2.903 -22.574  1.00  0.00     0.112 C 
HETATM   19  C12         0      53.117   1.914 -21.597  1.00  0.00     0.028 C 
BRANCH  17  20
HETATM   20  O9          0      52.343   3.208 -24.875  1.00  0.00    -0.357 OA
HETATM   21  H9          0      52.124   4.130 -24.811  1.00  0.00     0.218 HD
ENDBRANCH  17  20
BRANCH  18  22
HETATM   22  O11         0      52.780   4.221 -22.287  1.00  0.00    -0.357 OA
HETATM   23  H11         0      53.129   4.887 -22.867  1.00  0.00     0.218 HD
ENDBRANCH  18  22
ENDBRANCH   4  14
BRANCH   8  24
HETATM   24  O17         0      52.314  -6.132 -21.909  1.00  0.00    -0.359 OA
HETATM   25  H17         0      52.539  -7.009 -21.620  1.00  0.00     0.218 HD
ENDBRANCH   8  24
TORSDOF 5
ENDMDL
MODEL 9
REMARK VINA RESULT:      -3.0      2.505      6.751
REMARK  5 active torsions:
REMARK  status: ('A' for Active; 'I' for Inactive)
REMARK    1  A    between atoms: C4_4  and  C5_5 
REMARK    2  A    between atoms: C8_8  and  O9_9 
REMARK    3  A    between atoms: C10_11  and  O11_12 
REMARK    4  A    between atoms: C16_18  and  O17_19 
REMARK    5  A    between atoms: C19_22  and  O20_23 
ROOT
HETATM    1  O1          0      48.148  -1.967 -21.736  1.00  0.00    -0.286 OA
HETATM    2  C2          0      49.290  -1.482 -21.507  1.00  0.00     0.201 C 
HETATM    3  C3          0      49.674  -0.227 -21.949  1.00  0.00     0.067 C 
HETATM    4  C4          0      50.971   0.242 -21.772  1.00  0.00     0.103 C 
HETATM    5  O13         0      51.845  -0.528 -21.149  1.00  0.00    -0.307 OA
HETATM    6  C14         0      51.543  -1.741 -20.742  1.00  0.00     0.107 C 
HETATM    7  C15         0      52.522  -2.683 -20.462  1.00  0.00     0.049 C 
HETATM    8  C16         0      52.203  -4.024 -20.283  1.00  0.00     0.093 C 
HETATM    9  C18         0      50.897  -4.268 -19.875  1.00  0.00     0.048 C 
HETATM   10  C19         0      49.901  -3.327 -20.098  1.00  0.00     0.096 C 
HETATM   11  C21         0      50.211  -2.142 -20.709  1.00  0.00     0.084 C 
ENDROOT
BRANCH  10  12
HETATM   12  O20         0      48.570  -3.731 -20.097  1.00  0.00    -0.359 OA
HETATM   13  H20         0      48.193  -4.023 -20.918  1.00  0.00     0.218 HD
ENDBRANCH  10  12
BRANCH   4  14
HETATM   14  C5          0      51.462   1.230 -22.735  1.00  0.00     0.025 C 
HETATM   15  C6          0      50.862   2.468 -22.914  1.00  0.00     0.004 C 
HETATM   16  C7          0      51.693   3.561 -23.138  1.00  0.00     0.026 C 
HETATM   17  C8          0      53.065   3.411 -23.312  1.00  0.00     0.112 C 
HETATM   18  C10         0      53.460   2.151 -23.741  1.00  0.00     0.112 C 
HETATM   19  C12         0      52.653   1.064 -23.430  1.00  0.00     0.028 C 
BRANCH  17  20
HETATM   20  O9          0      53.945   4.386 -22.878  1.00  0.00    -0.357 OA
HETATM   21  H9          0      53.724   5.047 -22.231  1.00  0.00     0.218 HD
ENDBRANCH  17  20
BRANCH  18  22
HETATM   22  O11         0      54.790   2.002 -24.110  1.00  0.00    -0.357 OA
HETATM   23  H11         0      55.022   1.201 -24.565  1.00  0.00     0.218 HD
ENDBRANCH  18  22
ENDBRANCH   4  14
BRANCH   8  24
HETATM   24  O17         0      53.016  -5.041 -20.795  1.00  0.00    -0.359 OA
HETATM   25  H17         0      53.783  -5.351 -20.327  1.00  0.00     0.218 HD
ENDBRANCH   8  24
TORSDOF 5
ENDMDL
