MODEL 1
REMARK VINA RESULT:      -6.5      0.000      0.000
REMARK  5 active torsions:
REMARK  status: ('A' for Active; 'I' for Inactive)
REMARK    1  A    between atoms: C4_4  and  C5_5 
REMARK    2  A    between atoms: C8_8  and  O9_9 
REMARK    3  A    between atoms: C10_11  and  O11_12 
REMARK    4  A    between atoms: C16_18  and  O17_19 
REMARK    5  A    between atoms: C19_22  and  O20_23 
ROOT
HETATM    1  O1          0      44.588  46.027 -10.838  1.00  0.00    -0.286 OA
HETATM    2  C2          0      44.629  46.386 -12.047  1.00  0.00     0.201 C 
HETATM    3  C3          0      44.231  45.565 -13.088  1.00  0.00     0.067 C 
HETATM    4  C4          0      44.383  45.946 -14.416  1.00  0.00     0.103 C 
HETATM    5  O13         0      44.902  47.132 -14.681  1.00  0.00    -0.307 OA
HETATM    6  C14         0      45.331  47.935 -13.732  1.00  0.00     0.107 C 
HETATM    7  C15         0      46.218  48.969 -13.994  1.00  0.00     0.049 C 
HETATM    8  C16         0      46.861  49.647 -12.965  1.00  0.00     0.093 C 
HETATM    9  C18         0      46.203  49.618 -11.742  1.00  0.00     0.048 C 
HETATM   10  C19         0      45.274  48.624 -11.464  1.00  0.00     0.096 C 
HETATM   11  C21         0      44.992  47.675 -12.408  1.00  0.00     0.084 C 
ENDROOT
BRANCH  10  12
HETATM   12  O20         0      44.957  48.341 -10.139  1.00  0.00    -0.359 OA
HETATM   13  H20         0      45.590  47.855  -9.624  1.00  0.00     0.218 HD
ENDBRANCH  10  12
BRANCH   4  14
HETATM   14  C5          0      44.524  44.878 -15.408  1.00  0.00     0.025 C 
HETATM   15  C6          0      43.495  44.001 -15.719  1.00  0.00     0.004 C 
HETATM   16  C7          0      43.351  43.623 -17.050  1.00  0.00     0.026 C 
HETATM   17  C8          0      44.277  43.995 -18.019  1.00  0.00     0.112 C 
HETATM   18  C10         0      45.539  44.300 -17.527  1.00  0.00     0.112 C 
HETATM   19  C12         0      45.645  44.758 -16.218  1.00  0.00     0.028 C 
BRANCH  17  20
HETATM   20  O9          0      43.882  44.236 -19.322  1.00  0.00    -0.357 OA
HETATM   21  H9          0      44.473  44.527 -20.008  1.00  0.00     0.218 HD
ENDBRANCH  17  20
BRANCH  18  22
HETATM   22  O11         0      46.548  44.493 -18.460  1.00  0.00    -0.357 OA
HETATM   23  H11         0      46.532  45.308 -18.948  1.00  0.00     0.218 HD
ENDBRANCH  18  22
ENDBRANCH   4  14
BRANCH   8  24
HETATM   24  O17         0      48.204  50.025 -13.069  1.00  0.00    -0.359 OA
HETATM   25  H17         0      48.727  50.226 -12.302  1.00  0.00     0.218 HD
ENDBRANCH   8  24
TORSDOF 5
ENDMDL
MODEL 2
REMARK VINA RESULT:      -6.3      1.406      1.934
REMARK  5 active torsions:
REMARK  status: ('A' for Active; 'I' for Inactive)
REMARK    1  A    between atoms: C4_4  and  C5_5 
REMARK    2  A    between atoms: C8_8  and  O9_9 
REMARK    3  A    between atoms: C10_11  and  O11_12 
REMARK    4  A    between atoms: C16_18  and  O17_19 
REMARK    5  A    between atoms: C19_22  and  O20_23 
ROOT
HETATM    1  O1          0      44.779  45.683 -10.871  1.00  0.00    -0.286 OA
HETATM    2  C2          0      44.647  46.205 -12.012  1.00  0.00     0.201 C 
HETATM    3  C3          0      44.074  45.538 -13.081  1.00  0.00     0.067 C 
HETATM    4  C4          0      44.034  46.099 -14.353  1.00  0.00     0.103 C 
HETATM    5  O13         0      44.539  47.307 -14.530  1.00  0.00    -0.307 OA
HETATM    6  C14         0      45.127  47.968 -13.557  1.00  0.00     0.107 C 
HETATM    7  C15         0      45.992  49.023 -13.810  1.00  0.00     0.049 C 
HETATM    8  C16         0      46.801  49.548 -12.809  1.00  0.00     0.093 C 
HETATM    9  C18         0      46.335  49.354 -11.515  1.00  0.00     0.048 C 
HETATM   10  C19         0      45.432  48.337 -11.235  1.00  0.00     0.096 C 
HETATM   11  C21         0      44.985  47.529 -12.245  1.00  0.00     0.084 C 
ENDROOT
BRANCH  10  12
HETATM   12  O20         0      45.311  47.875  -9.929  1.00  0.00    -0.359 OA
HETATM   13  H20         0      45.124  48.509  -9.247  1.00  0.00     0.218 HD
ENDBRANCH  10  12
BRANCH   4  14
HETATM   14  C5          0      43.994  45.178 -15.490  1.00  0.00     0.025 C 
HETATM   15  C6          0      45.062  45.011 -16.361  1.00  0.00     0.004 C 
HETATM   16  C7          0      45.319  43.726 -16.827  1.00  0.00     0.026 C 
HETATM   17  C8          0      44.465  42.664 -16.546  1.00  0.00     0.112 C 
HETATM   18  C10         0      43.162  43.033 -16.240  1.00  0.00     0.112 C 
HETATM   19  C12         0      42.944  44.293 -15.695  1.00  0.00     0.028 C 
BRANCH  17  20
HETATM   20  O9          0      44.959  41.382 -16.386  1.00  0.00    -0.357 OA
HETATM   21  H9          0      45.089  40.968 -15.540  1.00  0.00     0.218 HD
ENDBRANCH  17  20
BRANCH  18  22
HETATM   22  O11         0      42.228  42.012 -16.138  1.00  0.00    -0.357 OA
HETATM   23  H11         0      42.335  41.402 -15.417  1.00  0.00     0.218 HD
ENDBRANCH  18  22
ENDBRANCH   4  14
BRANCH   8  24
HETATM   24  O17         0      48.123  49.930 -13.065  1.00  0.00    -0.359 OA
HETATM   25  H17         0      48.841  49.311 -13.010  1.00  0.00     0.218 HD
ENDBRANCH   8  24
TORSDOF 5
ENDMDL
MODEL 3
REMARK VINA RESULT:      -6.1      1.419      1.789
REMARK  5 active torsions:
REMARK  status: ('A' for Active; 'I' for Inactive)
REMARK    1  A    between atoms: C4_4  and  C5_5 
REMARK    2  A    between atoms: C8_8  and  O9_9 
REMARK    3  A    between atoms: C10_11  and  O11_12 
REMARK    4  A    between atoms: C16_18  and  O17_19 
REMARK    5  A    between atoms: C19_22  and  O20_23 
ROOT
HETATM    1  O1          0      44.860  46.098 -10.492  1.00  0.00    -0.286 OA
HETATM    2  C2          0      44.724  46.445 -11.698  1.00  0.00     0.201 C 
HETATM    3  C3          0      44.177  45.614 -12.661  1.00  0.00     0.067 C 
HETATM    4  C4          0      44.133  45.981 -14.001  1.00  0.00     0.103 C 
HETATM    5  O13         0      44.609  47.164 -14.351  1.00  0.00    -0.307 OA
HETATM    6  C14         0      45.172  47.975 -13.483  1.00  0.00     0.107 C 
HETATM    7  C15         0      46.012  49.004 -13.883  1.00  0.00     0.049 C 
HETATM    8  C16         0      46.799  49.691 -12.966  1.00  0.00     0.093 C 
HETATM    9  C18         0      46.327  49.676 -11.660  1.00  0.00     0.048 C 
HETATM   10  C19         0      45.448  48.687 -11.238  1.00  0.00     0.096 C 
HETATM   11  C21         0      45.030  47.729 -12.121  1.00  0.00     0.084 C 
ENDROOT
BRANCH  10  12
HETATM   12  O20         0      45.328  48.418  -9.878  1.00  0.00    -0.359 OA
HETATM   13  H20         0      46.104  48.506  -9.337  1.00  0.00     0.218 HD
ENDBRANCH  10  12
BRANCH   4  14
HETATM   14  C5          0      44.126  44.903 -14.991  1.00  0.00     0.025 C 
HETATM   15  C6          0      44.262  45.132 -16.353  1.00  0.00     0.004 C 
HETATM   16  C7          0      45.015  44.222 -17.087  1.00  0.00     0.026 C 
HETATM   17  C8          0      45.505  43.052 -16.517  1.00  0.00     0.112 C 
HETATM   18  C10         0      44.809  42.618 -15.396  1.00  0.00     0.112 C 
HETATM   19  C12         0      44.134  43.562 -14.631  1.00  0.00     0.028 C 
BRANCH  17  20
HETATM   20  O9          0      46.711  42.513 -16.928  1.00  0.00    -0.357 OA
HETATM   21  H9          0      46.819  42.007 -17.725  1.00  0.00     0.218 HD
ENDBRANCH  17  20
BRANCH  18  22
HETATM   22  O11         0      45.134  41.363 -14.902  1.00  0.00    -0.357 OA
HETATM   23  H11         0      45.636  41.335 -14.095  1.00  0.00     0.218 HD
ENDBRANCH  18  22
ENDBRANCH   4  14
BRANCH   8  24
HETATM   24  O17         0      48.113  50.066 -13.270  1.00  0.00    -0.359 OA
HETATM   25  H17         0      48.649  49.564 -13.872  1.00  0.00     0.218 HD
ENDBRANCH   8  24
TORSDOF 5
ENDMDL
MODEL 4
REMARK VINA RESULT:      -6.0      3.371      5.474
REMARK  5 active torsions:
REMARK  status: ('A' for Active; 'I' for Inactive)
REMARK    1  A    between atoms: C4_4  and  C5_5 
REMARK    2  A    between atoms: C8_8  and  O9_9 
REMARK    3  A    between atoms: C10_11  and  O11_12 
REMARK    4  A    between atoms: C16_18  and  O17_19 
REMARK    5  A    between atoms: C19_22  and  O20_23 
ROOT
HETATM    1  O1          0      44.531  44.223 -18.058  1.00  0.00    -0.286 OA
HETATM    2  C2          0      43.956  44.249 -16.935  1.00  0.00     0.201 C 
HETATM    3  C3          0      42.822  43.505 -16.656  1.00  0.00     0.067 C 
HETATM    4  C4          0      42.150  43.630 -15.445  1.00  0.00     0.103 C 
HETATM    5  O13         0      42.624  44.465 -14.538  1.00  0.00    -0.307 OA
HETATM    6  C14         0      43.676  45.222 -14.767  1.00  0.00     0.107 C 
HETATM    7  C15         0      43.937  46.357 -14.013  1.00  0.00     0.049 C 
HETATM    8  C16         0      44.892  47.284 -14.413  1.00  0.00     0.093 C 
HETATM    9  C18         0      45.887  46.782 -15.242  1.00  0.00     0.048 C 
HETATM   10  C19         0      45.675  45.622 -15.975  1.00  0.00     0.096 C 
HETATM   11  C21         0      44.484  44.958 -15.867  1.00  0.00     0.084 C 
ENDROOT
BRANCH  10  12
HETATM   12  O20         0      46.462  45.373 -17.096  1.00  0.00    -0.359 OA
HETATM   13  H20         0      46.157  45.696 -17.935  1.00  0.00     0.218 HD
ENDBRANCH  10  12
BRANCH   4  14
HETATM   14  C5          0      40.718  43.322 -15.439  1.00  0.00     0.025 C 
HETATM   15  C6          0      39.961  43.289 -14.278  1.00  0.00     0.004 C 
HETATM   16  C7          0      38.663  43.787 -14.340  1.00  0.00     0.026 C 
HETATM   17  C8          0      38.090  44.181 -15.544  1.00  0.00     0.112 C 
HETATM   18  C10         0      38.655  43.601 -16.672  1.00  0.00     0.112 C 
HETATM   19  C12         0      39.981  43.189 -16.609  1.00  0.00     0.028 C 
BRANCH  17  20
HETATM   20  O9          0      37.181  45.223 -15.589  1.00  0.00    -0.357 OA
HETATM   21  H9          0      37.430  46.136 -15.676  1.00  0.00     0.218 HD
ENDBRANCH  17  20
BRANCH  18  22
HETATM   22  O11         0      38.004  43.810 -17.879  1.00  0.00    -0.357 OA
HETATM   23  H11         0      38.024  44.693 -18.232  1.00  0.00     0.218 HD
ENDBRANCH  18  22
ENDBRANCH   4  14
BRANCH   8  24
HETATM   24  O17         0      44.675  48.660 -14.272  1.00  0.00    -0.359 OA
HETATM   25  H17         0      43.967  49.002 -13.740  1.00  0.00     0.218 HD
ENDBRANCH   8  24
TORSDOF 5
ENDMDL
MODEL 5
REMARK VINA RESULT:      -5.5      2.756      3.445
REMARK  5 active torsions:
REMARK  status: ('A' for Active; 'I' for Inactive)
REMARK    1  A    between atoms: C4_4  and  C5_5 
REMARK    2  A    between atoms: C8_8  and  O9_9 
REMARK    3  A    between atoms: C10_11  and  O11_12 
REMARK    4  A    between atoms: C16_18  and  O17_19 
REMARK    5  A    between atoms: C19_22  and  O20_23 
ROOT
HETATM    1  O1          0      45.413  46.517  -9.875  1.00  0.00    -0.286 OA
HETATM    2  C2          0      45.110  46.362 -11.090  1.00  0.00     0.201 C 
HETATM    3  C3          0      44.791  45.129 -11.633  1.00  0.00     0.067 C 
HETATM    4  C4          0      44.561  44.970 -12.995  1.00  0.00     0.103 C 
HETATM    5  O13         0      44.630  46.032 -13.778  1.00  0.00    -0.307 OA
HETATM    6  C14         0      44.965  47.218 -13.320  1.00  0.00     0.107 C 
HETATM    7  C15         0      45.424  48.223 -14.159  1.00  0.00     0.049 C 
HETATM    8  C16         0      46.013  49.375 -13.651  1.00  0.00     0.093 C 
HETATM    9  C18         0      45.643  49.699 -12.352  1.00  0.00     0.048 C 
HETATM   10  C19         0      45.135  48.728 -11.500  1.00  0.00     0.096 C 
HETATM   11  C21         0      44.983  47.444 -11.948  1.00  0.00     0.084 C 
ENDROOT
BRANCH  10  12
HETATM   12  O20         0      45.181  48.937 -10.125  1.00  0.00    -0.359 OA
HETATM   13  H20         0      45.592  48.272  -9.586  1.00  0.00     0.218 HD
ENDBRANCH  10  12
BRANCH   4  14
HETATM   14  C5          0      44.830  43.651 -13.570  1.00  0.00     0.025 C 
HETATM   15  C6          0      46.102  43.103 -13.632  1.00  0.00     0.004 C 
HETATM   16  C7          0      46.228  41.736 -13.402  1.00  0.00     0.026 C 
HETATM   17  C8          0      45.114  40.917 -13.248  1.00  0.00     0.112 C 
HETATM   18  C10         0      43.948  41.411 -13.818  1.00  0.00     0.112 C 
HETATM   19  C12         0      43.813  42.787 -13.959  1.00  0.00     0.028 C 
BRANCH  17  20
HETATM   20  O9          0      45.154  39.817 -12.410  1.00  0.00    -0.357 OA
HETATM   21  H9          0      45.952  39.476 -12.025  1.00  0.00     0.218 HD
ENDBRANCH  17  20
BRANCH  18  22
HETATM   22  O11         0      42.857  40.555 -13.860  1.00  0.00    -0.357 OA
HETATM   23  H11         0      42.375  40.432 -13.050  1.00  0.00     0.218 HD
ENDBRANCH  18  22
ENDBRANCH   4  14
BRANCH   8  24
HETATM   24  O17         0      47.129  49.955 -14.265  1.00  0.00    -0.359 OA
HETATM   25  H17         0      47.902  49.446 -14.477  1.00  0.00     0.218 HD
ENDBRANCH   8  24
TORSDOF 5
ENDMDL
MODEL 6
REMARK VINA RESULT:      -5.5      1.957      2.928
REMARK  5 active torsions:
REMARK  status: ('A' for Active; 'I' for Inactive)
REMARK    1  A    between atoms: C4_4  and  C5_5 
REMARK    2  A    between atoms: C8_8  and  O9_9 
REMARK    3  A    between atoms: C10_11  and  O11_12 
REMARK    4  A    between atoms: C16_18  and  O17_19 
REMARK    5  A    between atoms: C19_22  and  O20_23 
ROOT
HETATM    1  O1          0      44.667  43.734 -12.044  1.00  0.00    -0.286 OA
HETATM    2  C2          0      44.075  44.216 -13.049  1.00  0.00     0.201 C 
HETATM    3  C3          0      43.275  43.456 -13.885  1.00  0.00     0.067 C 
HETATM    4  C4          0      42.718  43.989 -15.042  1.00  0.00     0.103 C 
HETATM    5  O13         0      42.947  45.257 -15.331  1.00  0.00    -0.307 OA
HETATM    6  C14         0      43.729  46.013 -14.591  1.00  0.00     0.107 C 
HETATM    7  C15         0      44.289  47.185 -15.080  1.00  0.00     0.049 C 
HETATM    8  C16         0      45.305  47.839 -14.395  1.00  0.00     0.093 C 
HETATM    9  C18         0      45.346  47.592 -13.028  1.00  0.00     0.048 C 
HETATM   10  C19         0      44.755  46.452 -12.500  1.00  0.00     0.096 C 
HETATM   11  C21         0      44.113  45.574 -13.329  1.00  0.00     0.084 C 
ENDROOT
BRANCH  10  12
HETATM   12  O20         0      45.160  45.993 -11.250  1.00  0.00    -0.359 OA
HETATM   13  H20         0      46.087  46.021 -11.045  1.00  0.00     0.218 HD
ENDBRANCH  10  12
BRANCH   4  14
HETATM   14  C5          0      42.427  43.058 -16.134  1.00  0.00     0.025 C 
HETATM   15  C6          0      41.291  42.263 -16.161  1.00  0.00     0.004 C 
HETATM   16  C7          0      40.668  42.070 -17.390  1.00  0.00     0.026 C 
HETATM   17  C8          0      41.229  42.538 -18.574  1.00  0.00     0.112 C 
HETATM   18  C10         0      42.602  42.737 -18.526  1.00  0.00     0.112 C 
HETATM   19  C12         0      43.187  43.012 -17.296  1.00  0.00     0.028 C 
BRANCH  17  20
HETATM   20  O9          0      40.427  42.963 -19.618  1.00  0.00    -0.357 OA
HETATM   21  H9          0      39.754  42.426 -20.020  1.00  0.00     0.218 HD
ENDBRANCH  17  20
BRANCH  18  22
HETATM   22  O11         0      43.238  43.021 -19.726  1.00  0.00    -0.357 OA
HETATM   23  H11         0      44.167  42.826 -19.777  1.00  0.00     0.218 HD
ENDBRANCH  18  22
ENDBRANCH   4  14
BRANCH   8  24
HETATM   24  O17         0      46.387  48.416 -15.071  1.00  0.00    -0.359 OA
HETATM   25  H17         0      47.256  48.442 -14.690  1.00  0.00     0.218 HD
ENDBRANCH   8  24
TORSDOF 5
ENDMDL
MODEL 7
REMARK VINA RESULT:      -5.3      3.733      6.293
REMARK  5 active torsions:
REMARK  status: ('A' for Active; 'I' for Inactive)
REMARK    1  A    between atoms: C4_4  and  C5_5 
REMARK    2  A    between atoms: C8_8  and  O9_9 
REMARK    3  A    between atoms: C10_11  and  O11_12 
REMARK    4  A    between atoms: C16_18  and  O17_19 
REMARK    5  A    between atoms: C19_22  and  O20_23 
ROOT
HETATM    1  O1          0      43.336  41.635 -13.133  1.00  0.00    -0.286 OA
HETATM    2  C2          0      44.141  42.437 -12.585  1.00  0.00     0.201 C 
HETATM    3  C3          0      43.851  43.778 -12.394  1.00  0.00     0.067 C 
HETATM    4  C4          0      44.795  44.661 -11.882  1.00  0.00     0.103 C 
HETATM    5  O13         0      45.987  44.196 -11.553  1.00  0.00    -0.307 OA
HETATM    6  C14         0      46.326  42.940 -11.749  1.00  0.00     0.107 C 
HETATM    7  C15         0      47.654  42.539 -11.789  1.00  0.00     0.049 C 
HETATM    8  C16         0      48.012  41.276 -12.245  1.00  0.00     0.093 C 
HETATM    9  C18         0      47.019  40.310 -12.139  1.00  0.00     0.048 C 
HETATM   10  C19         0      45.684  40.678 -12.049  1.00  0.00     0.096 C 
HETATM   11  C21         0      45.343  42.003 -12.048  1.00  0.00     0.084 C 
ENDROOT
BRANCH  10  12
HETATM   12  O20         0      44.699  39.751 -12.379  1.00  0.00    -0.359 OA
HETATM   13  H20         0      43.835  40.079 -12.598  1.00  0.00     0.218 HD
ENDBRANCH  10  12
BRANCH   4  14
HETATM   14  C5          0      44.667  46.070 -12.258  1.00  0.00     0.025 C 
HETATM   15  C6          0      44.873  47.109 -11.363  1.00  0.00     0.004 C 
HETATM   16  C7          0      45.514  48.250 -11.836  1.00  0.00     0.026 C 
HETATM   17  C8          0      45.820  48.409 -13.183  1.00  0.00     0.112 C 
HETATM   18  C10         0      45.039  47.655 -14.048  1.00  0.00     0.112 C 
HETATM   19  C12         0      44.479  46.475 -13.574  1.00  0.00     0.028 C 
BRANCH  17  20
HETATM   20  O9          0      46.952  49.102 -13.575  1.00  0.00    -0.357 OA
HETATM   21  H9          0      47.606  49.431 -12.970  1.00  0.00     0.218 HD
ENDBRANCH  17  20
BRANCH  18  22
HETATM   22  O11         0      45.172  47.916 -15.404  1.00  0.00    -0.357 OA
HETATM   23  H11         0      45.425  48.799 -15.650  1.00  0.00     0.218 HD
ENDBRANCH  18  22
ENDBRANCH   4  14
BRANCH   8  24
HETATM   24  O17         0      49.143  41.084 -13.047  1.00  0.00    -0.359 OA
HETATM   25  H17         0      49.744  40.364 -12.898  1.00  0.00     0.218 HD
ENDBRANCH   8  24
TORSDOF 5
ENDMDL
MODEL 8
REMARK VINA RESULT:      -5.2      2.277      6.649
REMARK  5 active torsions:
REMARK  status: ('A' for Active; 'I' for Inactive)
REMARK    1  A    between atoms: C4_4  and  C5_5 
REMARK    2  A    between atoms: C8_8  and  O9_9 
REMARK    3  A    between atoms: C10_11  and  O11_12 
REMARK    4  A    between atoms: C16_18  and  O17_19 
REMARK    5  A    between atoms: C19_22  and  O20_23 
ROOT
HETATM    1  O1          0      45.242  41.773 -13.099  1.00  0.00    -0.286 OA
HETATM    2  C2          0      45.336  42.887 -13.685  1.00  0.00     0.201 C 
HETATM    3  C3          0      45.436  44.088 -13.003  1.00  0.00     0.067 C 
HETATM    4  C4          0      45.435  45.307 -13.671  1.00  0.00     0.103 C 
HETATM    5  O13         0      45.356  45.308 -14.990  1.00  0.00    -0.307 OA
HETATM    6  C14         0      45.222  44.199 -15.683  1.00  0.00     0.107 C 
HETATM    7  C15         0      44.745  44.204 -16.986  1.00  0.00     0.049 C 
HETATM    8  C16         0      44.366  43.027 -17.621  1.00  0.00     0.093 C 
HETATM    9  C18         0      44.965  41.875 -17.127  1.00  0.00     0.048 C 
HETATM   10  C19         0      45.494  41.849 -15.844  1.00  0.00     0.096 C 
HETATM   11  C21         0      45.441  42.972 -15.065  1.00  0.00     0.084 C 
ENDROOT
BRANCH  10  12
HETATM   12  O20         0      45.684  40.624 -15.211  1.00  0.00    -0.359 OA
HETATM   13  H20         0      45.809  39.857 -15.755  1.00  0.00     0.218 HD
ENDBRANCH  10  12
BRANCH   4  14
HETATM   14  C5          0      44.944  46.473 -12.935  1.00  0.00     0.025 C 
HETATM   15  C6          0      44.731  46.462 -11.564  1.00  0.00     0.004 C 
HETATM   16  C7          0      45.059  47.611 -10.851  1.00  0.00     0.026 C 
HETATM   17  C8          0      45.459  48.778 -11.493  1.00  0.00     0.112 C 
HETATM   18  C10         0      45.038  48.888 -12.812  1.00  0.00     0.112 C 
HETATM   19  C12         0      44.799  47.721 -13.528  1.00  0.00     0.028 C 
BRANCH  17  20
HETATM   20  O9          0      46.375  49.632 -10.905  1.00  0.00    -0.357 OA
HETATM   21  H9          0      46.203  50.124 -10.110  1.00  0.00     0.218 HD
ENDBRANCH  17  20
BRANCH  18  22
HETATM   22  O11         0      45.246  50.109 -13.438  1.00  0.00    -0.357 OA
HETATM   23  H11         0      45.247  50.881 -12.885  1.00  0.00     0.218 HD
ENDBRANCH  18  22
ENDBRANCH   4  14
BRANCH   8  24
HETATM   24  O17         0      43.235  42.974 -18.443  1.00  0.00    -0.359 OA
HETATM   25  H17         0      42.362  43.133 -18.103  1.00  0.00     0.218 HD
ENDBRANCH   8  24
TORSDOF 5
ENDMDL
MODEL 9
REMARK VINA RESULT:      -4.8      4.139      5.812
REMARK  5 active torsions:
REMARK  status: ('A' for Active; 'I' for Inactive)
REMARK    1  A    between atoms: C4_4  and  C5_5 
REMARK    2  A    between atoms: C8_8  and  O9_9 
REMARK    3  A    between atoms: C10_11  and  O11_12 
REMARK    4  A    between atoms: C16_18  and  O17_19 
REMARK    5  A    between atoms: C19_22  and  O20_23 
ROOT
HETATM    1  O1          0      44.238  40.916 -13.985  1.00  0.00    -0.286 OA
HETATM    2  C2          0      43.538  41.961 -14.085  1.00  0.00     0.201 C 
HETATM    3  C3          0      42.154  41.942 -14.067  1.00  0.00     0.067 C 
HETATM    4  C4          0      41.406  43.094 -14.283  1.00  0.00     0.103 C 
HETATM    5  O13         0      42.042  44.234 -14.488  1.00  0.00    -0.307 OA
HETATM    6  C14         0      43.354  44.301 -14.552  1.00  0.00     0.107 C 
HETATM    7  C15         0      44.003  45.372 -15.150  1.00  0.00     0.049 C 
HETATM    8  C16         0      45.361  45.322 -15.442  1.00  0.00     0.093 C 
HETATM    9  C18         0      46.096  44.438 -14.661  1.00  0.00     0.048 C 
HETATM   10  C19         0      45.472  43.383 -14.011  1.00  0.00     0.096 C 
HETATM   11  C21         0      44.118  43.220 -14.126  1.00  0.00     0.084 C 
ENDROOT
BRANCH  10  12
HETATM   12  O20         0      46.229  42.286 -13.612  1.00  0.00    -0.359 OA
HETATM   13  H20         0      47.157  42.417 -13.458  1.00  0.00     0.218 HD
ENDBRANCH  10  12
BRANCH   4  14
HETATM   14  C5          0      40.063  42.927 -14.839  1.00  0.00     0.025 C 
HETATM   15  C6          0      38.940  42.728 -14.048  1.00  0.00     0.004 C 
HETATM   16  C7          0      37.758  43.347 -14.439  1.00  0.00     0.026 C 
HETATM   17  C8          0      37.657  44.029 -15.647  1.00  0.00     0.112 C 
HETATM   18  C10         0      38.578  43.641 -16.611  1.00  0.00     0.112 C 
HETATM   19  C12         0      39.788  43.104 -16.189  1.00  0.00     0.028 C 
BRANCH  17  20
HETATM   20  O9          0      36.839  45.139 -15.768  1.00  0.00    -0.357 OA
HETATM   21  H9          0      36.178  45.380 -15.129  1.00  0.00     0.218 HD
ENDBRANCH  17  20
BRANCH  18  22
HETATM   22  O11         0      38.403  44.152 -17.889  1.00  0.00    -0.357 OA
HETATM   23  H11         0      37.928  43.609 -18.508  1.00  0.00     0.218 HD
ENDBRANCH  18  22
ENDBRANCH   4  14
BRANCH   8  24
HETATM   24  O17         0      45.871  45.852 -16.632  1.00  0.00    -0.359 OA
HETATM   25  H17         0      45.493  46.624 -17.036  1.00  0.00     0.218 HD
ENDBRANCH   8  24
TORSDOF 5
ENDMDL
