MODEL 1
REMARK VINA RESULT:      -0.0      0.000      0.000
REMARK  5 active torsions:
REMARK  status: ('A' for Active; 'I' for Inactive)
REMARK    1  A    between atoms: C4_4  and  C5_5 
REMARK    2  A    between atoms: C8_8  and  O9_9 
REMARK    3  A    between atoms: C10_11  and  O11_12 
REMARK    4  A    between atoms: C16_18  and  O17_19 
REMARK    5  A    between atoms: C19_22  and  O20_23 
ROOT
HETATM    1  O1          0      25.490 119.772 -28.228  1.00  0.00    -0.286 OA
HETATM    2  C2          0      24.870 120.773 -27.775  1.00  0.00     0.201 C 
HETATM    3  C3          0      24.031 120.702 -26.676  1.00  0.00     0.067 C 
HETATM    4  C4          0      23.280 121.797 -26.261  1.00  0.00     0.103 C 
HETATM    5  O13         0      23.393 122.933 -26.926  1.00  0.00    -0.307 OA
HETATM    6  C14         0      24.147 123.043 -27.998  1.00  0.00     0.107 C 
HETATM    7  C15         0      23.969 124.071 -28.914  1.00  0.00     0.049 C 
HETATM    8  C16         0      24.585 124.043 -30.159  1.00  0.00     0.093 C 
HETATM    9  C18         0      25.741 123.274 -30.225  1.00  0.00     0.048 C 
HETATM   10  C19         0      25.972 122.268 -29.297  1.00  0.00     0.096 C 
HETATM   11  C21         0      25.064 122.042 -28.299  1.00  0.00     0.084 C 
ENDROOT
BRANCH  10  12
HETATM   12  O20         0      26.866 121.248 -29.608  1.00  0.00    -0.359 OA
HETATM   13  H20         0      27.472 121.390 -30.325  1.00  0.00     0.218 HD
ENDBRANCH  10  12
BRANCH   4  14
HETATM   14  C5          0      22.034 121.521 -25.543  1.00  0.00     0.025 C 
HETATM   15  C6          0      20.957 122.395 -25.544  1.00  0.00     0.004 C 
HETATM   16  C7          0      19.681 121.845 -25.597  1.00  0.00     0.026 C 
HETATM   17  C8          0      19.474 120.472 -25.518  1.00  0.00     0.112 C 
HETATM   18  C10         0      20.498 119.766 -24.899  1.00  0.00     0.112 C 
HETATM   19  C12         0      21.781 120.299 -24.934  1.00  0.00     0.028 C 
BRANCH  17  20
HETATM   20  O9          0      18.429 119.871 -26.197  1.00  0.00    -0.357 OA
HETATM   21  H9          0      18.225 118.945 -26.140  1.00  0.00     0.218 HD
ENDBRANCH  17  20
BRANCH  18  22
HETATM   22  O11         0      20.261 118.427 -24.624  1.00  0.00    -0.357 OA
HETATM   23  H11         0      20.939 117.810 -24.877  1.00  0.00     0.218 HD
ENDBRANCH  18  22
ENDBRANCH   4  14
BRANCH   8  24
HETATM   24  O17         0      23.917 124.467 -31.313  1.00  0.00    -0.359 OA
HETATM   25  H17         0      24.284 124.334 -32.179  1.00  0.00     0.218 HD
ENDBRANCH   8  24
TORSDOF 5
ENDMDL
MODEL 2
REMARK VINA RESULT:      -0.0      3.974      4.707
REMARK  5 active torsions:
REMARK  status: ('A' for Active; 'I' for Inactive)
REMARK    1  A    between atoms: C4_4  and  C5_5 
REMARK    2  A    between atoms: C8_8  and  O9_9 
REMARK    3  A    between atoms: C10_11  and  O11_12 
REMARK    4  A    between atoms: C16_18  and  O17_19 
REMARK    5  A    between atoms: C19_22  and  O20_23 
ROOT
HETATM    1  O1          0      23.658 115.925 -28.673  1.00  0.00    -0.286 OA
HETATM    2  C2          0      23.084 117.048 -28.624  1.00  0.00     0.201 C 
HETATM    3  C3          0      21.758 117.198 -28.256  1.00  0.00     0.067 C 
HETATM    4  C4          0      21.123 118.433 -28.310  1.00  0.00     0.103 C 
HETATM    5  O13         0      21.816 119.487 -28.704  1.00  0.00    -0.307 OA
HETATM    6  C14         0      23.066 119.393 -29.100  1.00  0.00     0.107 C 
HETATM    7  C15         0      23.663 120.377 -29.875  1.00  0.00     0.049 C 
HETATM    8  C16         0      24.886 120.161 -30.500  1.00  0.00     0.093 C 
HETATM    9  C18         0      25.686 119.193 -29.904  1.00  0.00     0.048 C 
HETATM   10  C19         0      25.127 118.222 -29.085  1.00  0.00     0.096 C 
HETATM   11  C21         0      23.779 118.226 -28.849  1.00  0.00     0.084 C 
ENDROOT
BRANCH  10  12
HETATM   12  O20         0      25.825 117.040 -28.858  1.00  0.00    -0.359 OA
HETATM   13  H20         0      26.588 116.863 -29.396  1.00  0.00     0.218 HD
ENDBRANCH  10  12
BRANCH   4  14
HETATM   14  C5          0      19.671 118.432 -28.502  1.00  0.00     0.025 C 
HETATM   15  C6          0      18.990 119.484 -29.097  1.00  0.00     0.004 C 
HETATM   16  C7          0      17.929 119.171 -29.939  1.00  0.00     0.026 C 
HETATM   17  C8          0      17.471 117.866 -30.082  1.00  0.00     0.112 C 
HETATM   18  C10         0      17.770 117.027 -29.016  1.00  0.00     0.112 C 
HETATM   19  C12         0      18.887 117.316 -28.242  1.00  0.00     0.028 C 
BRANCH  17  20
HETATM   20  O9          0      16.957 117.423 -31.287  1.00  0.00    -0.357 OA
HETATM   21  H9          0      17.429 116.856 -31.887  1.00  0.00     0.218 HD
ENDBRANCH  17  20
BRANCH  18  22
HETATM   22  O11         0      17.178 115.772 -29.020  1.00  0.00    -0.357 OA
HETATM   23  H11         0      16.290 115.714 -28.686  1.00  0.00     0.218 HD
ENDBRANCH  18  22
ENDBRANCH   4  14
BRANCH   8  24
HETATM   24  O17         0      25.134 120.626 -31.796  1.00  0.00    -0.359 OA
HETATM   25  H17         0      25.133 121.554 -32.002  1.00  0.00     0.218 HD
ENDBRANCH   8  24
TORSDOF 5
ENDMDL
MODEL 3
REMARK VINA RESULT:      -0.0      1.838      2.351
REMARK  5 active torsions:
REMARK  status: ('A' for Active; 'I' for Inactive)
REMARK    1  A    between atoms: C4_4  and  C5_5 
REMARK    2  A    between atoms: C8_8  and  O9_9 
REMARK    3  A    between atoms: C10_11  and  O11_12 
REMARK    4  A    between atoms: C16_18  and  O17_19 
REMARK    5  A    between atoms: C19_22  and  O20_23 
ROOT
HETATM    1  O1          0      23.965 120.714 -28.213  1.00  0.00    -0.286 OA
HETATM    2  C2          0      23.171 121.681 -28.048  1.00  0.00     0.201 C 
HETATM    3  C3          0      22.029 121.589 -27.271  1.00  0.00     0.067 C 
HETATM    4  C4          0      21.118 122.636 -27.189  1.00  0.00     0.103 C 
HETATM    5  O13         0      21.367 123.748 -27.857  1.00  0.00    -0.307 OA
HETATM    6  C14         0      22.417 123.874 -28.639  1.00  0.00     0.107 C 
HETATM    7  C15         0      22.479 124.844 -29.629  1.00  0.00     0.049 C 
HETATM    8  C16         0      23.464 124.812 -30.610  1.00  0.00     0.093 C 
HETATM    9  C18         0      24.625 124.137 -30.254  1.00  0.00     0.048 C 
HETATM   10  C19         0      24.608 123.194 -29.235  1.00  0.00     0.096 C 
HETATM   11  C21         0      23.443 122.938 -28.565  1.00  0.00     0.084 C 
ENDROOT
BRANCH  10  12
HETATM   12  O20         0      25.617 122.237 -29.178  1.00  0.00    -0.359 OA
HETATM   13  H20         0      26.497 122.503 -29.414  1.00  0.00     0.218 HD
ENDBRANCH  10  12
BRANCH   4  14
HETATM   14  C5          0      19.727 122.291 -26.888  1.00  0.00     0.025 C 
HETATM   15  C6          0      18.654 123.074 -27.288  1.00  0.00     0.004 C 
HETATM   16  C7          0      17.500 122.421 -27.709  1.00  0.00     0.026 C 
HETATM   17  C8          0      17.366 121.040 -27.608  1.00  0.00     0.112 C 
HETATM   18  C10         0      18.178 120.447 -26.651  1.00  0.00     0.112 C 
HETATM   19  C12         0      19.369 121.079 -26.311  1.00  0.00     0.028 C 
BRANCH  17  20
HETATM   20  O9          0      16.636 120.329 -28.544  1.00  0.00    -0.357 OA
HETATM   21  H9          0      16.553 120.586 -29.455  1.00  0.00     0.218 HD
ENDBRANCH  17  20
BRANCH  18  22
HETATM   22  O11         0      17.951 119.106 -26.378  1.00  0.00    -0.357 OA
HETATM   23  H11         0      17.159 118.893 -25.897  1.00  0.00     0.218 HD
ENDBRANCH  18  22
ENDBRANCH   4  14
BRANCH   8  24
HETATM   24  O17         0      23.177 125.132 -31.941  1.00  0.00    -0.359 OA
HETATM   25  H17         0      22.317 124.982 -32.317  1.00  0.00     0.218 HD
ENDBRANCH   8  24
TORSDOF 5
ENDMDL
MODEL 4
REMARK VINA RESULT:      -0.0      2.030      3.422
REMARK  5 active torsions:
REMARK  status: ('A' for Active; 'I' for Inactive)
REMARK    1  A    between atoms: C4_4  and  C5_5 
REMARK    2  A    between atoms: C8_8  and  O9_9 
REMARK    3  A    between atoms: C10_11  and  O11_12 
REMARK    4  A    between atoms: C16_18  and  O17_19 
REMARK    5  A    between atoms: C19_22  and  O20_23 
ROOT
HETATM    1  O1          0      21.831 124.976 -28.767  1.00  0.00    -0.286 OA
HETATM    2  C2          0      22.051 123.803 -28.356  1.00  0.00     0.201 C 
HETATM    3  C3          0      21.068 123.011 -27.788  1.00  0.00     0.067 C 
HETATM    4  C4          0      21.360 121.763 -27.249  1.00  0.00     0.103 C 
HETATM    5  O13         0      22.605 121.323 -27.304  1.00  0.00    -0.307 OA
HETATM    6  C14         0      23.582 122.050 -27.798  1.00  0.00     0.107 C 
HETATM    7  C15         0      24.912 121.784 -27.504  1.00  0.00     0.049 C 
HETATM    8  C16         0      25.915 122.695 -27.814  1.00  0.00     0.093 C 
HETATM    9  C18         0      25.616 123.567 -28.854  1.00  0.00     0.048 C 
HETATM   10  C19         0      24.297 123.820 -29.205  1.00  0.00     0.096 C 
HETATM   11  C21         0      23.283 123.193 -28.533  1.00  0.00     0.084 C 
ENDROOT
BRANCH  10  12
HETATM   12  O20         0      23.991 124.979 -29.912  1.00  0.00    -0.359 OA
HETATM   13  H20         0      23.140 125.375 -29.772  1.00  0.00     0.218 HD
ENDBRANCH  10  12
BRANCH   4  14
HETATM   14  C5          0      20.485 121.273 -26.182  1.00  0.00     0.025 C 
HETATM   15  C6          0      20.912 120.377 -25.212  1.00  0.00     0.004 C 
HETATM   16  C7          0      20.444 120.560 -23.915  1.00  0.00     0.026 C 
HETATM   17  C8          0      19.481 121.518 -23.615  1.00  0.00     0.112 C 
HETATM   18  C10         0      18.687 121.897 -24.689  1.00  0.00     0.112 C 
HETATM   19  C12         0      19.211 121.783 -25.971  1.00  0.00     0.028 C 
BRANCH  17  20
HETATM   20  O9          0      19.485 122.170 -22.395  1.00  0.00    -0.357 OA
HETATM   21  H9          0      19.703 121.748 -21.572  1.00  0.00     0.218 HD
ENDBRANCH  17  20
BRANCH  18  22
HETATM   22  O11         0      17.593 122.704 -24.408  1.00  0.00    -0.357 OA
HETATM   23  H11         0      16.808 122.270 -24.093  1.00  0.00     0.218 HD
ENDBRANCH  18  22
ENDBRANCH   4  14
BRANCH   8  24
HETATM   24  O17         0      26.981 122.932 -26.938  1.00  0.00    -0.359 OA
HETATM   25  H17         0      27.047 123.737 -26.439  1.00  0.00     0.218 HD
ENDBRANCH   8  24
TORSDOF 5
ENDMDL
MODEL 5
REMARK VINA RESULT:      -0.0      3.074      4.491
REMARK  5 active torsions:
REMARK  status: ('A' for Active; 'I' for Inactive)
REMARK    1  A    between atoms: C4_4  and  C5_5 
REMARK    2  A    between atoms: C8_8  and  O9_9 
REMARK    3  A    between atoms: C10_11  and  O11_12 
REMARK    4  A    between atoms: C16_18  and  O17_19 
REMARK    5  A    between atoms: C19_22  and  O20_23 
ROOT
HETATM    1  O1          0      21.831 124.976 -28.767  1.00  0.00    -0.286 OA
HETATM    2  C2          0      21.694 123.796 -29.192  1.00  0.00     0.201 C 
HETATM    3  C3          0      20.464 123.261 -29.538  1.00  0.00     0.067 C 
HETATM    4  C4          0      20.327 121.928 -29.906  1.00  0.00     0.103 C 
HETATM    5  O13         0      21.406 121.165 -29.942  1.00  0.00    -0.307 OA
HETATM    6  C14         0      22.591 121.612 -29.588  1.00  0.00     0.107 C 
HETATM    7  C15         0      23.623 120.753 -29.241  1.00  0.00     0.049 C 
HETATM    8  C16         0      24.778 121.222 -28.628  1.00  0.00     0.093 C 
HETATM    9  C18         0      25.067 122.560 -28.868  1.00  0.00     0.048 C 
HETATM   10  C19         0      24.067 123.439 -29.262  1.00  0.00     0.096 C 
HETATM   11  C21         0      22.789 122.980 -29.432  1.00  0.00     0.084 C 
ENDROOT
BRANCH  10  12
HETATM   12  O20         0      24.250 124.805 -29.078  1.00  0.00    -0.359 OA
HETATM   13  H20         0      23.482 125.340 -28.916  1.00  0.00     0.218 HD
ENDBRANCH  10  12
BRANCH   4  14
HETATM   14  C5          0      19.027 121.298 -29.669  1.00  0.00     0.025 C 
HETATM   15  C6          0      18.878 119.934 -29.465  1.00  0.00     0.004 C 
HETATM   16  C7          0      17.938 119.522 -28.526  1.00  0.00     0.026 C 
HETATM   17  C8          0      17.080 120.425 -27.907  1.00  0.00     0.112 C 
HETATM   18  C10         0      16.872 121.603 -28.613  1.00  0.00     0.112 C 
HETATM   19  C12         0      17.865 122.037 -29.482  1.00  0.00     0.028 C 
BRANCH  17  20
HETATM   20  O9          0      16.660 120.226 -26.604  1.00  0.00    -0.357 OA
HETATM   21  H9          0      16.103 120.832 -26.130  1.00  0.00     0.218 HD
ENDBRANCH  17  20
BRANCH  18  22
HETATM   22  O11         0      15.884 122.454 -28.137  1.00  0.00    -0.357 OA
HETATM   23  H11         0      14.988 122.252 -28.381  1.00  0.00     0.218 HD
ENDBRANCH  18  22
ENDBRANCH   4  14
BRANCH   8  24
HETATM   24  O17         0      25.397 120.509 -27.595  1.00  0.00    -0.359 OA
HETATM   25  H17         0      25.358 120.803 -26.693  1.00  0.00     0.218 HD
ENDBRANCH   8  24
TORSDOF 5
ENDMDL
MODEL 6
REMARK VINA RESULT:       0.0      5.808      7.998
REMARK  5 active torsions:
REMARK  status: ('A' for Active; 'I' for Inactive)
REMARK    1  A    between atoms: C4_4  and  C5_5 
REMARK    2  A    between atoms: C8_8  and  O9_9 
REMARK    3  A    between atoms: C10_11  and  O11_12 
REMARK    4  A    between atoms: C16_18  and  O17_19 
REMARK    5  A    between atoms: C19_22  and  O20_23 
ROOT
HETATM    1  O1          0      20.991 117.370 -32.051  1.00  0.00    -0.286 OA
HETATM    2  C2          0      22.095 117.819 -32.465  1.00  0.00     0.201 C 
HETATM    3  C3          0      23.181 117.005 -32.739  1.00  0.00     0.067 C 
HETATM    4  C4          0      24.416 117.533 -33.095  1.00  0.00     0.103 C 
HETATM    5  O13         0      24.542 118.845 -33.191  1.00  0.00    -0.307 OA
HETATM    6  C14         0      23.553 119.664 -32.906  1.00  0.00     0.107 C 
HETATM    7  C15         0      23.774 121.003 -32.617  1.00  0.00     0.049 C 
HETATM    8  C16         0      22.774 121.799 -32.072  1.00  0.00     0.093 C 
HETATM    9  C18         0      21.477 121.370 -32.331  1.00  0.00     0.048 C 
HETATM   10  C19         0      21.226 120.047 -32.669  1.00  0.00     0.096 C 
HETATM   11  C21         0      22.264 119.162 -32.765  1.00  0.00     0.084 C 
ENDROOT
BRANCH  10  12
HETATM   12  O20         0      19.944 119.533 -32.499  1.00  0.00    -0.359 OA
HETATM   13  H20         0      19.857 118.682 -32.087  1.00  0.00     0.218 HD
ENDBRANCH  10  12
BRANCH   4  14
HETATM   14  C5          0      25.602 116.733 -32.784  1.00  0.00     0.025 C 
HETATM   15  C6          0      26.852 117.294 -32.568  1.00  0.00     0.004 C 
HETATM   16  C7          0      27.649 116.731 -31.576  1.00  0.00     0.026 C 
HETATM   17  C8          0      27.274 115.568 -30.912  1.00  0.00     0.112 C 
HETATM   18  C10         0      26.378 114.767 -31.607  1.00  0.00     0.112 C 
HETATM   19  C12         0      25.534 115.368 -32.532  1.00  0.00     0.028 C 
BRANCH  17  20
HETATM   20  O9          0      27.616 115.367 -29.586  1.00  0.00    -0.357 OA
HETATM   21  H9          0      28.507 115.227 -29.286  1.00  0.00     0.218 HD
ENDBRANCH  17  20
BRANCH  18  22
HETATM   22  O11         0      26.118 113.511 -31.078  1.00  0.00    -0.357 OA
HETATM   23  H11         0      26.869 112.963 -30.880  1.00  0.00     0.218 HD
ENDBRANCH  18  22
ENDBRANCH   4  14
BRANCH   8  24
HETATM   24  O17         0      23.052 122.740 -31.075  1.00  0.00    -0.359 OA
HETATM   25  H17         0      22.842 123.660 -31.184  1.00  0.00     0.218 HD
ENDBRANCH   8  24
TORSDOF 5
ENDMDL
MODEL 7
REMARK VINA RESULT:       0.0      4.658      6.647
REMARK  5 active torsions:
REMARK  status: ('A' for Active; 'I' for Inactive)
REMARK    1  A    between atoms: C4_4  and  C5_5 
REMARK    2  A    between atoms: C8_8  and  O9_9 
REMARK    3  A    between atoms: C10_11  and  O11_12 
REMARK    4  A    between atoms: C16_18  and  O17_19 
REMARK    5  A    between atoms: C19_22  and  O20_23 
ROOT
HETATM    1  O1          0      21.559 117.491 -30.804  1.00  0.00    -0.286 OA
HETATM    2  C2          0      22.762 117.872 -30.788  1.00  0.00     0.201 C 
HETATM    3  C3          0      23.826 116.992 -30.690  1.00  0.00     0.067 C 
HETATM    4  C4          0      25.136 117.443 -30.571  1.00  0.00     0.103 C 
HETATM    5  O13         0      25.361 118.745 -30.572  1.00  0.00    -0.307 OA
HETATM    6  C14         0      24.384 119.624 -30.625  1.00  0.00     0.107 C 
HETATM    7  C15         0      24.564 120.942 -30.231  1.00  0.00     0.049 C 
HETATM    8  C16         0      23.483 121.794 -30.046  1.00  0.00     0.093 C 
HETATM    9  C18         0      22.339 121.454 -30.758  1.00  0.00     0.048 C 
HETATM   10  C19         0      22.148 120.155 -31.208  1.00  0.00     0.096 C 
HETATM   11  C21         0      23.102 119.205 -30.963  1.00  0.00     0.084 C 
ENDROOT
BRANCH  10  12
HETATM   12  O20         0      20.862 119.723 -31.517  1.00  0.00    -0.359 OA
HETATM   13  H20         0      20.587 118.875 -31.192  1.00  0.00     0.218 HD
ENDBRANCH  10  12
BRANCH   4  14
HETATM   14  C5          0      26.088 116.564 -29.890  1.00  0.00     0.025 C 
HETATM   15  C6          0      27.211 117.039 -29.230  1.00  0.00     0.004 C 
HETATM   16  C7          0      27.573 116.414 -28.041  1.00  0.00     0.026 C 
HETATM   17  C8          0      26.922 115.271 -27.591  1.00  0.00     0.112 C 
HETATM   18  C10         0      26.286 114.537 -28.583  1.00  0.00     0.112 C 
HETATM   19  C12         0      25.858 115.204 -29.725  1.00  0.00     0.028 C 
BRANCH  17  20
HETATM   20  O9          0      26.762 115.032 -26.237  1.00  0.00    -0.357 OA
HETATM   21  H9          0      26.114 115.469 -25.697  1.00  0.00     0.218 HD
ENDBRANCH  17  20
BRANCH  18  22
HETATM   22  O11         0      25.784 113.295 -28.223  1.00  0.00    -0.357 OA
HETATM   23  H11         0      25.965 112.571 -28.811  1.00  0.00     0.218 HD
ENDBRANCH  18  22
ENDBRANCH   4  14
BRANCH   8  24
HETATM   24  O17         0      23.444 122.704 -28.983  1.00  0.00    -0.359 OA
HETATM   25  H17         0      23.339 123.636 -29.128  1.00  0.00     0.218 HD
ENDBRANCH   8  24
TORSDOF 5
ENDMDL
MODEL 8
REMARK VINA RESULT:       0.0      5.138      7.657
REMARK  5 active torsions:
REMARK  status: ('A' for Active; 'I' for Inactive)
REMARK    1  A    between atoms: C4_4  and  C5_5 
REMARK    2  A    between atoms: C8_8  and  O9_9 
REMARK    3  A    between atoms: C10_11  and  O11_12 
REMARK    4  A    between atoms: C16_18  and  O17_19 
REMARK    5  A    between atoms: C19_22  and  O20_23 
ROOT
HETATM    1  O1          0      22.852 114.245 -25.848  1.00  0.00    -0.286 OA
HETATM    2  C2          0      23.262 114.769 -26.919  1.00  0.00     0.201 C 
HETATM    3  C3          0      24.284 115.703 -26.955  1.00  0.00     0.067 C 
HETATM    4  C4          0      24.647 116.341 -28.136  1.00  0.00     0.103 C 
HETATM    5  O13         0      24.009 116.026 -29.249  1.00  0.00    -0.307 OA
HETATM    6  C14         0      23.007 115.174 -29.264  1.00  0.00     0.107 C 
HETATM    7  C15         0      22.093 115.139 -30.308  1.00  0.00     0.049 C 
HETATM    8  C16         0      20.905 114.425 -30.203  1.00  0.00     0.093 C 
HETATM    9  C18         0      20.929 113.376 -29.292  1.00  0.00     0.048 C 
HETATM   10  C19         0      21.861 113.356 -28.263  1.00  0.00     0.096 C 
HETATM   11  C21         0      22.774 114.370 -28.154  1.00  0.00     0.084 C 
ENDROOT
BRANCH  10  12
HETATM   12  O20         0      21.615 112.577 -27.137  1.00  0.00    -0.359 OA
HETATM   13  H20         0      22.001 111.710 -27.103  1.00  0.00     0.218 HD
ENDBRANCH  10  12
BRANCH   4  14
HETATM   14  C5          0      25.251 117.669 -28.021  1.00  0.00     0.025 C 
HETATM   15  C6          0      25.169 118.622 -29.026  1.00  0.00     0.004 C 
HETATM   16  C7          0      24.998 119.949 -28.644  1.00  0.00     0.026 C 
HETATM   17  C8          0      25.042 120.335 -27.309  1.00  0.00     0.112 C 
HETATM   18  C10         0      25.738 119.468 -26.478  1.00  0.00     0.112 C 
HETATM   19  C12         0      25.820 118.129 -26.841  1.00  0.00     0.028 C 
BRANCH  17  20
HETATM   20  O9          0      24.267 121.385 -26.849  1.00  0.00    -0.357 OA
HETATM   21  H9          0      24.527 121.961 -26.139  1.00  0.00     0.218 HD
ENDBRANCH  17  20
BRANCH  18  22
HETATM   22  O11         0      25.974 119.896 -25.179  1.00  0.00    -0.357 OA
HETATM   23  H11         0      26.104 120.829 -25.051  1.00  0.00     0.218 HD
ENDBRANCH  18  22
ENDBRANCH   4  14
BRANCH   8  24
HETATM   24  O17         0      19.703 114.931 -30.711  1.00  0.00    -0.359 OA
HETATM   25  H17         0      19.503 114.903 -31.639  1.00  0.00     0.218 HD
ENDBRANCH   8  24
TORSDOF 5
ENDMDL
MODEL 9
REMARK VINA RESULT:       0.0      6.911      8.679
REMARK  5 active torsions:
REMARK  status: ('A' for Active; 'I' for Inactive)
REMARK    1  A    between atoms: C4_4  and  C5_5 
REMARK    2  A    between atoms: C8_8  and  O9_9 
REMARK    3  A    between atoms: C10_11  and  O11_12 
REMARK    4  A    between atoms: C16_18  and  O17_19 
REMARK    5  A    between atoms: C19_22  and  O20_23 
ROOT
HETATM    1  O1          0      24.547 118.618 -32.176  1.00  0.00    -0.286 OA
HETATM    2  C2          0      24.822 119.433 -33.100  1.00  0.00     0.201 C 
HETATM    3  C3          0      24.095 120.590 -33.320  1.00  0.00     0.067 C 
HETATM    4  C4          0      24.354 121.418 -34.407  1.00  0.00     0.103 C 
HETATM    5  O13         0      25.334 121.093 -35.232  1.00  0.00    -0.307 OA
HETATM    6  C14         0      26.030 119.986 -35.090  1.00  0.00     0.107 C 
HETATM    7  C15         0      26.761 119.443 -36.137  1.00  0.00     0.049 C 
HETATM    8  C16         0      27.280 118.156 -36.063  1.00  0.00     0.093 C 
HETATM    9  C18         0      27.496 117.684 -34.774  1.00  0.00     0.048 C 
HETATM   10  C19         0      26.816 118.237 -33.697  1.00  0.00     0.096 C 
HETATM   11  C21         0      25.939 119.266 -33.904  1.00  0.00     0.084 C 
ENDROOT
BRANCH  10  12
HETATM   12  O20         0      26.696 117.505 -32.519  1.00  0.00    -0.359 OA
HETATM   13  H20         0      25.823 117.292 -32.214  1.00  0.00     0.218 HD
ENDBRANCH  10  12
BRANCH   4  14
HETATM   14  C5          0      23.243 122.225 -34.914  1.00  0.00     0.025 C 
HETATM   15  C6          0      23.164 122.652 -36.232  1.00  0.00     0.004 C 
HETATM   16  C7          0      21.910 122.657 -36.834  1.00  0.00     0.026 C 
HETATM   17  C8          0      20.754 122.378 -36.113  1.00  0.00     0.112 C 
HETATM   18  C10         0      20.858 122.592 -34.745  1.00  0.00     0.112 C 
HETATM   19  C12         0      22.112 122.496 -34.155  1.00  0.00     0.028 C 
BRANCH  17  20
HETATM   20  O9          0      19.682 121.739 -36.711  1.00  0.00    -0.357 OA
HETATM   21  H9          0      19.752 121.222 -37.505  1.00  0.00     0.218 HD
ENDBRANCH  17  20
BRANCH  18  22
HETATM   22  O11         0      19.686 122.511 -34.006  1.00  0.00    -0.357 OA
HETATM   23  H11         0      19.600 123.107 -33.271  1.00  0.00     0.218 HD
ENDBRANCH  18  22
ENDBRANCH   4  14
BRANCH   8  24
HETATM   24  O17         0      27.263 117.298 -37.168  1.00  0.00    -0.359 OA
HETATM   25  H17         0      28.052 116.871 -37.480  1.00  0.00     0.218 HD
ENDBRANCH   8  24
TORSDOF 5
ENDMDL
