MODEL 1
REMARK VINA RESULT:      -3.3      0.000      0.000
REMARK  5 active torsions:
REMARK  status: ('A' for Active; 'I' for Inactive)
REMARK    1  A    between atoms: C4_4  and  C5_5 
REMARK    2  A    between atoms: C8_8  and  O9_9 
REMARK    3  A    between atoms: C10_11  and  O11_12 
REMARK    4  A    between atoms: C16_18  and  O17_19 
REMARK    5  A    between atoms: C19_22  and  O20_23 
ROOT
HETATM    1  O1          0      66.666   8.941 -20.519  1.00  0.00    -0.286 OA
HETATM    2  C2          0      65.473   8.553 -20.394  1.00  0.00     0.201 C 
HETATM    3  C3          0      65.127   7.218 -20.269  1.00  0.00     0.067 C 
HETATM    4  C4          0      63.798   6.810 -20.236  1.00  0.00     0.103 C 
HETATM    5  O13         0      62.850   7.728 -20.305  1.00  0.00    -0.307 OA
HETATM    6  C14         0      63.123   9.005 -20.461  1.00  0.00     0.107 C 
HETATM    7  C15         0      62.175   9.903 -20.928  1.00  0.00     0.049 C 
HETATM    8  C16         0      62.532  11.184 -21.331  1.00  0.00     0.093 C 
HETATM    9  C18         0      63.702  11.674 -20.764  1.00  0.00     0.048 C 
HETATM   10  C19         0      64.652  10.804 -20.245  1.00  0.00     0.096 C 
HETATM   11  C21         0      64.426   9.455 -20.277  1.00  0.00     0.084 C 
ENDROOT
BRANCH  10  12
HETATM   12  O20         0      65.963  11.243 -20.090  1.00  0.00    -0.359 OA
HETATM   13  H20         0      66.322  11.818 -20.755  1.00  0.00     0.218 HD
ENDBRANCH  10  12
BRANCH   4  14
HETATM   14  C5          0      63.502   5.454 -20.703  1.00  0.00     0.025 C 
HETATM   15  C6          0      63.960   4.318 -20.052  1.00  0.00     0.004 C 
HETATM   16  C7          0      63.102   3.225 -19.983  1.00  0.00     0.026 C 
HETATM   17  C8          0      61.883   3.211 -20.653  1.00  0.00     0.112 C 
HETATM   18  C10         0      61.809   4.071 -21.740  1.00  0.00     0.112 C 
HETATM   19  C12         0      62.616   5.202 -21.743  1.00  0.00     0.028 C 
BRANCH  17  20
HETATM   20  O9          0      60.792   2.544 -20.124  1.00  0.00    -0.357 OA
HETATM   21  H9          0      60.758   1.603 -19.999  1.00  0.00     0.218 HD
ENDBRANCH  17  20
BRANCH  18  22
HETATM   22  O11         0      60.690   3.961 -22.553  1.00  0.00    -0.357 OA
HETATM   23  H11         0      59.923   3.547 -22.175  1.00  0.00     0.218 HD
ENDBRANCH  18  22
ENDBRANCH   4  14
BRANCH   8  24
HETATM   24  O17         0      61.954  11.782 -22.457  1.00  0.00    -0.359 OA
HETATM   25  H17         0      62.426  11.864 -23.276  1.00  0.00     0.218 HD
ENDBRANCH   8  24
TORSDOF 5
ENDMDL
MODEL 2
REMARK VINA RESULT:      -3.2      2.073      3.241
REMARK  5 active torsions:
REMARK  status: ('A' for Active; 'I' for Inactive)
REMARK    1  A    between atoms: C4_4  and  C5_5 
REMARK    2  A    between atoms: C8_8  and  O9_9 
REMARK    3  A    between atoms: C10_11  and  O11_12 
REMARK    4  A    between atoms: C16_18  and  O17_19 
REMARK    5  A    between atoms: C19_22  and  O20_23 
ROOT
HETATM    1  O1          0      62.236   6.710 -24.373  1.00  0.00    -0.286 OA
HETATM    2  C2          0      62.765   6.485 -23.250  1.00  0.00     0.201 C 
HETATM    3  C3          0      62.916   5.209 -22.735  1.00  0.00     0.067 C 
HETATM    4  C4          0      63.407   4.995 -21.452  1.00  0.00     0.103 C 
HETATM    5  O13         0      63.754   6.041 -20.722  1.00  0.00    -0.307 OA
HETATM    6  C14         0      63.595   7.275 -21.149  1.00  0.00     0.107 C 
HETATM    7  C15         0      63.572   8.353 -20.277  1.00  0.00     0.049 C 
HETATM    8  C16         0      63.154   9.611 -20.694  1.00  0.00     0.093 C 
HETATM    9  C18         0      63.283   9.849 -22.057  1.00  0.00     0.048 C 
HETATM   10  C19         0      63.357   8.793 -22.955  1.00  0.00     0.096 C 
HETATM   11  C21         0      63.318   7.506 -22.492  1.00  0.00     0.084 C 
ENDROOT
BRANCH  10  12
HETATM   12  O20         0      63.049   9.015 -24.293  1.00  0.00    -0.359 OA
HETATM   13  H20         0      63.768   9.155 -24.898  1.00  0.00     0.218 HD
ENDBRANCH  10  12
BRANCH   4  14
HETATM   14  C5          0      62.991   3.768 -20.771  1.00  0.00     0.025 C 
HETATM   15  C6          0      61.931   3.727 -19.876  1.00  0.00     0.004 C 
HETATM   16  C7          0      61.110   2.604 -19.901  1.00  0.00     0.026 C 
HETATM   17  C8          0      61.408   1.500 -20.691  1.00  0.00     0.112 C 
HETATM   18  C10         0      62.748   1.375 -21.031  1.00  0.00     0.112 C 
HETATM   19  C12         0      63.527   2.525 -21.082  1.00  0.00     0.028 C 
BRANCH  17  20
HETATM   20  O9          0      60.399   0.735 -21.249  1.00  0.00    -0.357 OA
HETATM   21  H9          0      59.622   1.101 -21.656  1.00  0.00     0.218 HD
ENDBRANCH  17  20
BRANCH  18  22
HETATM   22  O11         0      63.131   0.197 -21.656  1.00  0.00    -0.357 OA
HETATM   23  H11         0      63.350  -0.537 -21.094  1.00  0.00     0.218 HD
ENDBRANCH  18  22
ENDBRANCH   4  14
BRANCH   8  24
HETATM   24  O17         0      62.362  10.425 -19.877  1.00  0.00    -0.359 OA
HETATM   25  H17         0      62.478  10.448 -18.934  1.00  0.00     0.218 HD
ENDBRANCH   8  24
TORSDOF 5
ENDMDL
MODEL 3
REMARK VINA RESULT:      -3.1      2.032      2.717
REMARK  5 active torsions:
REMARK  status: ('A' for Active; 'I' for Inactive)
REMARK    1  A    between atoms: C4_4  and  C5_5 
REMARK    2  A    between atoms: C8_8  and  O9_9 
REMARK    3  A    between atoms: C10_11  and  O11_12 
REMARK    4  A    between atoms: C16_18  and  O17_19 
REMARK    5  A    between atoms: C19_22  and  O20_23 
ROOT
HETATM    1  O1          0      64.287   7.225 -23.991  1.00  0.00    -0.286 OA
HETATM    2  C2          0      64.058   6.990 -22.773  1.00  0.00     0.201 C 
HETATM    3  C3          0      63.882   5.709 -22.276  1.00  0.00     0.067 C 
HETATM    4  C4          0      63.530   5.484 -20.950  1.00  0.00     0.103 C 
HETATM    5  O13         0      63.381   6.523 -20.148  1.00  0.00    -0.307 OA
HETATM    6  C14         0      63.499   7.761 -20.577  1.00  0.00     0.107 C 
HETATM    7  C15         0      62.966   8.832 -19.875  1.00  0.00     0.049 C 
HETATM    8  C16         0      62.868  10.094 -20.449  1.00  0.00     0.093 C 
HETATM    9  C18         0      63.771  10.343 -21.476  1.00  0.00     0.048 C 
HETATM   10  C19         0      64.359   9.294 -22.169  1.00  0.00     0.096 C 
HETATM   11  C21         0      64.061   8.003 -21.826  1.00  0.00     0.084 C 
ENDROOT
BRANCH  10  12
HETATM   12  O20         0      64.893   9.527 -23.432  1.00  0.00    -0.359 OA
HETATM   13  H20         0      64.948  10.426 -23.733  1.00  0.00     0.218 HD
ENDBRANCH  10  12
BRANCH   4  14
HETATM   14  C5          0      62.797   4.253 -20.652  1.00  0.00     0.025 C 
HETATM   15  C6          0      61.531   3.991 -21.155  1.00  0.00     0.004 C 
HETATM   16  C7          0      61.247   2.684 -21.538  1.00  0.00     0.026 C 
HETATM   17  C8          0      62.141   1.645 -21.305  1.00  0.00     0.112 C 
HETATM   18  C10         0      63.042   1.875 -20.274  1.00  0.00     0.112 C 
HETATM   19  C12         0      63.373   3.190 -19.968  1.00  0.00     0.028 C 
BRANCH  17  20
HETATM   20  O9          0      62.236   0.580 -22.184  1.00  0.00    -0.357 OA
HETATM   21  H9          0      61.708   0.495 -22.970  1.00  0.00     0.218 HD
ENDBRANCH  17  20
BRANCH  18  22
HETATM   22  O11         0      63.829   0.804 -19.875  1.00  0.00    -0.357 OA
HETATM   23  H11         0      64.135   0.218 -20.558  1.00  0.00     0.218 HD
ENDBRANCH  18  22
ENDBRANCH   4  14
BRANCH   8  24
HETATM   24  O17         0      61.746  10.904 -20.243  1.00  0.00    -0.359 OA
HETATM   25  H17         0      60.914  10.541 -19.961  1.00  0.00     0.218 HD
ENDBRANCH   8  24
TORSDOF 5
ENDMDL
MODEL 4
REMARK VINA RESULT:      -3.1      2.170      2.918
REMARK  5 active torsions:
REMARK  status: ('A' for Active; 'I' for Inactive)
REMARK    1  A    between atoms: C4_4  and  C5_5 
REMARK    2  A    between atoms: C8_8  and  O9_9 
REMARK    3  A    between atoms: C10_11  and  O11_12 
REMARK    4  A    between atoms: C16_18  and  O17_19 
REMARK    5  A    between atoms: C19_22  and  O20_23 
ROOT
HETATM    1  O1          0      64.276   8.141 -21.125  1.00  0.00    -0.286 OA
HETATM    2  C2          0      63.200   7.534 -21.382  1.00  0.00     0.201 C 
HETATM    3  C3          0      63.084   6.156 -21.325  1.00  0.00     0.067 C 
HETATM    4  C4          0      61.917   5.506 -21.713  1.00  0.00     0.103 C 
HETATM    5  O13         0      60.893   6.233 -22.125  1.00  0.00    -0.307 OA
HETATM    6  C14         0      60.963   7.541 -22.233  1.00  0.00     0.107 C 
HETATM    7  C15         0      60.074   8.258 -23.020  1.00  0.00     0.049 C 
HETATM    8  C16         0      60.302   9.593 -23.335  1.00  0.00     0.093 C 
HETATM    9  C18         0      61.109  10.278 -22.435  1.00  0.00     0.048 C 
HETATM   10  C19         0      61.978   9.589 -21.600  1.00  0.00     0.096 C 
HETATM   11  C21         0      62.027   8.222 -21.650  1.00  0.00     0.084 C 
ENDROOT
BRANCH  10  12
HETATM   12  O20         0      63.060  10.260 -21.041  1.00  0.00    -0.359 OA
HETATM   13  H20         0      63.920   9.867 -21.126  1.00  0.00     0.218 HD
ENDBRANCH  10  12
BRANCH   4  14
HETATM   14  C5          0      62.046   4.131 -22.198  1.00  0.00     0.025 C 
HETATM   15  C6          0      63.252   3.593 -22.624  1.00  0.00     0.004 C 
HETATM   16  C7          0      63.516   2.266 -22.302  1.00  0.00     0.026 C 
HETATM   17  C8          0      62.560   1.459 -21.695  1.00  0.00     0.112 C 
HETATM   18  C10         0      61.247   1.868 -21.889  1.00  0.00     0.112 C 
HETATM   19  C12         0      61.004   3.215 -22.125  1.00  0.00     0.028 C 
BRANCH  17  20
HETATM   20  O9          0      62.932   0.468 -20.804  1.00  0.00    -0.357 OA
HETATM   21  H9          0      62.345   0.091 -20.158  1.00  0.00     0.218 HD
ENDBRANCH  17  20
BRANCH  18  22
HETATM   22  O11         0      60.250   1.000 -21.467  1.00  0.00    -0.357 OA
HETATM   23  H11         0      59.680   0.642 -22.138  1.00  0.00     0.218 HD
ENDBRANCH  18  22
ENDBRANCH   4  14
BRANCH   8  24
HETATM   24  O17         0      60.027  10.098 -24.610  1.00  0.00    -0.359 OA
HETATM   25  H17         0      60.590   9.913 -25.353  1.00  0.00     0.218 HD
ENDBRANCH   8  24
TORSDOF 5
ENDMDL
MODEL 5
REMARK VINA RESULT:      -3.0      2.214      3.725
REMARK  5 active torsions:
REMARK  status: ('A' for Active; 'I' for Inactive)
REMARK    1  A    between atoms: C4_4  and  C5_5 
REMARK    2  A    between atoms: C8_8  and  O9_9 
REMARK    3  A    between atoms: C10_11  and  O11_12 
REMARK    4  A    between atoms: C16_18  and  O17_19 
REMARK    5  A    between atoms: C19_22  and  O20_23 
ROOT
HETATM    1  O1          0      66.335   4.368 -22.323  1.00  0.00    -0.286 OA
HETATM    2  C2          0      65.324   4.618 -21.612  1.00  0.00     0.201 C 
HETATM    3  C3          0      64.304   3.704 -21.410  1.00  0.00     0.067 C 
HETATM    4  C4          0      63.153   4.041 -20.706  1.00  0.00     0.103 C 
HETATM    5  O13         0      63.049   5.259 -20.204  1.00  0.00    -0.307 OA
HETATM    6  C14         0      63.971   6.176 -20.399  1.00  0.00     0.107 C 
HETATM    7  C15         0      63.704   7.527 -20.235  1.00  0.00     0.049 C 
HETATM    8  C16         0      64.592   8.498 -20.682  1.00  0.00     0.093 C 
HETATM    9  C18         0      65.913   8.080 -20.789  1.00  0.00     0.048 C 
HETATM   10  C19         0      66.219   6.732 -20.907  1.00  0.00     0.096 C 
HETATM   11  C21         0      65.213   5.804 -20.902  1.00  0.00     0.084 C 
ENDROOT
BRANCH  10  12
HETATM   12  O20         0      67.449   6.357 -21.440  1.00  0.00    -0.359 OA
HETATM   13  H20         0      67.837   6.918 -22.101  1.00  0.00     0.218 HD
ENDBRANCH  10  12
BRANCH   4  14
HETATM   14  C5          0      61.929   3.306 -21.033  1.00  0.00     0.025 C 
HETATM   15  C6          0      61.172   3.572 -22.165  1.00  0.00     0.004 C 
HETATM   16  C7          0      60.608   2.489 -22.831  1.00  0.00     0.026 C 
HETATM   17  C8          0      60.679   1.198 -22.317  1.00  0.00     0.112 C 
HETATM   18  C10         0      60.873   1.131 -20.944  1.00  0.00     0.112 C 
HETATM   19  C12         0      61.517   2.190 -20.316  1.00  0.00     0.028 C 
BRANCH  17  20
HETATM   20  O9          0      60.761   0.103 -23.159  1.00  0.00    -0.357 OA
HETATM   21  H9          0      61.012  -0.767 -22.871  1.00  0.00     0.218 HD
ENDBRANCH  17  20
BRANCH  18  22
HETATM   22  O11         0      60.763  -0.120 -20.355  1.00  0.00    -0.357 OA
HETATM   23  H11         0      60.776  -0.872 -20.936  1.00  0.00     0.218 HD
ENDBRANCH  18  22
ENDBRANCH   4  14
BRANCH   8  24
HETATM   24  O17         0      64.140   9.674 -21.291  1.00  0.00    -0.359 OA
HETATM   25  H17         0      63.216   9.843 -21.428  1.00  0.00     0.218 HD
ENDBRANCH   8  24
TORSDOF 5
ENDMDL
MODEL 6
REMARK VINA RESULT:      -3.0      1.675      2.472
REMARK  5 active torsions:
REMARK  status: ('A' for Active; 'I' for Inactive)
REMARK    1  A    between atoms: C4_4  and  C5_5 
REMARK    2  A    between atoms: C8_8  and  O9_9 
REMARK    3  A    between atoms: C10_11  and  O11_12 
REMARK    4  A    between atoms: C16_18  and  O17_19 
REMARK    5  A    between atoms: C19_22  and  O20_23 
ROOT
HETATM    1  O1          0      66.448   6.413 -22.779  1.00  0.00    -0.286 OA
HETATM    2  C2          0      65.579   6.073 -21.929  1.00  0.00     0.201 C 
HETATM    3  C3          0      65.243   4.752 -21.686  1.00  0.00     0.067 C 
HETATM    4  C4          0      64.212   4.410 -20.819  1.00  0.00     0.103 C 
HETATM    5  O13         0      63.555   5.377 -20.201  1.00  0.00    -0.307 OA
HETATM    6  C14         0      63.809   6.647 -20.424  1.00  0.00     0.107 C 
HETATM    7  C15         0      62.895   7.642 -20.108  1.00  0.00     0.049 C 
HETATM    8  C16         0      63.053   8.942 -20.572  1.00  0.00     0.093 C 
HETATM    9  C18         0      64.360   9.301 -20.877  1.00  0.00     0.048 C 
HETATM   10  C19         0      65.313   8.329 -21.153  1.00  0.00     0.096 C 
HETATM   11  C21         0      64.966   7.006 -21.107  1.00  0.00     0.084 C 
ENDROOT
BRANCH  10  12
HETATM   12  O20         0      66.456   8.680 -21.864  1.00  0.00    -0.359 OA
HETATM   13  H20         0      66.970   7.982 -22.253  1.00  0.00     0.218 HD
ENDBRANCH  10  12
BRANCH   4  14
HETATM   14  C5          0      63.531   3.136 -21.057  1.00  0.00     0.025 C 
HETATM   15  C6          0      63.745   2.011 -20.275  1.00  0.00     0.004 C 
HETATM   16  C7          0      62.646   1.207 -19.987  1.00  0.00     0.026 C 
HETATM   17  C8          0      61.403   1.436 -20.567  1.00  0.00     0.112 C 
HETATM   18  C10         0      61.442   2.140 -21.764  1.00  0.00     0.112 C 
HETATM   19  C12         0      62.509   3.001 -21.989  1.00  0.00     0.028 C 
BRANCH  17  20
HETATM   20  O9          0      60.237   1.161 -19.875  1.00  0.00    -0.357 OA
HETATM   21  H9          0      59.374   1.162 -20.274  1.00  0.00     0.218 HD
ENDBRANCH  17  20
BRANCH  18  22
HETATM   22  O11         0      60.256   2.231 -22.478  1.00  0.00    -0.357 OA
HETATM   23  H11         0      59.942   1.437 -22.894  1.00  0.00     0.218 HD
ENDBRANCH  18  22
ENDBRANCH   4  14
BRANCH   8  24
HETATM   24  O17         0      61.961   9.697 -21.014  1.00  0.00    -0.359 OA
HETATM   25  H17         0      62.048  10.616 -21.239  1.00  0.00     0.218 HD
ENDBRANCH   8  24
TORSDOF 5
ENDMDL
MODEL 7
REMARK VINA RESULT:      -2.9      1.773      2.065
REMARK  5 active torsions:
REMARK  status: ('A' for Active; 'I' for Inactive)
REMARK    1  A    between atoms: C4_4  and  C5_5 
REMARK    2  A    between atoms: C8_8  and  O9_9 
REMARK    3  A    between atoms: C10_11  and  O11_12 
REMARK    4  A    between atoms: C16_18  and  O17_19 
REMARK    5  A    between atoms: C19_22  and  O20_23 
ROOT
HETATM    1  O1          0      64.837   9.695 -19.876  1.00  0.00    -0.286 OA
HETATM    2  C2          0      64.046   8.778 -20.231  1.00  0.00     0.201 C 
HETATM    3  C3          0      64.352   7.434 -20.107  1.00  0.00     0.067 C 
HETATM    4  C4          0      63.507   6.446 -20.599  1.00  0.00     0.103 C 
HETATM    5  O13         0      62.377   6.809 -21.181  1.00  0.00    -0.307 OA
HETATM    6  C14         0      62.057   8.072 -21.358  1.00  0.00     0.107 C 
HETATM    7  C15         0      61.108   8.462 -22.292  1.00  0.00     0.049 C 
HETATM    8  C16         0      60.957   9.795 -22.655  1.00  0.00     0.093 C 
HETATM    9  C18         0      61.382  10.714 -21.703  1.00  0.00     0.048 C 
HETATM   10  C19         0      62.295  10.345 -20.724  1.00  0.00     0.096 C 
HETATM   11  C21         0      62.768   9.061 -20.686  1.00  0.00     0.084 C 
ENDROOT
BRANCH  10  12
HETATM   12  O20         0      63.031  11.330 -20.074  1.00  0.00    -0.359 OA
HETATM   13  H20         0      62.742  12.231 -20.160  1.00  0.00     0.218 HD
ENDBRANCH  10  12
BRANCH   4  14
HETATM   14  C5          0      64.117   5.171 -20.980  1.00  0.00     0.025 C 
HETATM   15  C6          0      65.025   4.501 -20.173  1.00  0.00     0.004 C 
HETATM   16  C7          0      64.945   3.113 -20.128  1.00  0.00     0.026 C 
HETATM   17  C8          0      64.082   2.404 -20.958  1.00  0.00     0.112 C 
HETATM   18  C10         0      63.714   3.074 -22.117  1.00  0.00     0.112 C 
HETATM   19  C12         0      63.721   4.463 -22.108  1.00  0.00     0.028 C 
BRANCH  17  20
HETATM   20  O9          0      63.495   1.227 -20.530  1.00  0.00    -0.357 OA
HETATM   21  H9          0      63.062   0.612 -21.111  1.00  0.00     0.218 HD
ENDBRANCH  17  20
BRANCH  18  22
HETATM   22  O11         0      63.011   2.346 -23.067  1.00  0.00    -0.357 OA
HETATM   23  H11         0      62.529   1.587 -22.757  1.00  0.00     0.218 HD
ENDBRANCH  18  22
ENDBRANCH   4  14
BRANCH   8  24
HETATM   24  O17         0      60.721  10.167 -23.983  1.00  0.00    -0.359 OA
HETATM   25  H17         0      59.842  10.307 -24.313  1.00  0.00     0.218 HD
ENDBRANCH   8  24
TORSDOF 5
ENDMDL
MODEL 8
REMARK VINA RESULT:      -2.7      1.465      2.004
REMARK  5 active torsions:
REMARK  status: ('A' for Active; 'I' for Inactive)
REMARK    1  A    between atoms: C4_4  and  C5_5 
REMARK    2  A    between atoms: C8_8  and  O9_9 
REMARK    3  A    between atoms: C10_11  and  O11_12 
REMARK    4  A    between atoms: C16_18  and  O17_19 
REMARK    5  A    between atoms: C19_22  and  O20_23 
ROOT
HETATM    1  O1          0      66.512   9.322 -20.457  1.00  0.00    -0.286 OA
HETATM    2  C2          0      65.291   9.035 -20.319  1.00  0.00     0.201 C 
HETATM    3  C3          0      64.829   7.731 -20.262  1.00  0.00     0.067 C 
HETATM    4  C4          0      63.470   7.441 -20.213  1.00  0.00     0.103 C 
HETATM    5  O13         0      62.608   8.442 -20.201  1.00  0.00    -0.307 OA
HETATM    6  C14         0      62.992   9.697 -20.291  1.00  0.00     0.107 C 
HETATM    7  C15         0      62.117  10.702 -20.677  1.00  0.00     0.049 C 
HETATM    8  C16         0      62.579  11.969 -21.016  1.00  0.00     0.093 C 
HETATM    9  C18         0      63.802  12.317 -20.457  1.00  0.00     0.048 C 
HETATM   10  C19         0      64.681  11.337 -20.017  1.00  0.00     0.096 C 
HETATM   11  C21         0      64.334  10.018 -20.120  1.00  0.00     0.084 C 
ENDROOT
BRANCH  10  12
HETATM   12  O20         0      66.030  11.647 -19.875  1.00  0.00    -0.359 OA
HETATM   13  H20         0      66.622  10.952 -19.614  1.00  0.00     0.218 HD
ENDBRANCH  10  12
BRANCH   4  14
HETATM   14  C5          0      63.042   6.148 -20.749  1.00  0.00     0.025 C 
HETATM   15  C6          0      62.179   6.030 -21.829  1.00  0.00     0.004 C 
HETATM   16  C7          0      62.425   5.009 -22.742  1.00  0.00     0.026 C 
HETATM   17  C8          0      63.412   4.055 -22.521  1.00  0.00     0.112 C 
HETATM   18  C10         0      63.760   3.880 -21.188  1.00  0.00     0.112 C 
HETATM   19  C12         0      63.583   4.945 -20.314  1.00  0.00     0.028 C 
BRANCH  17  20
HETATM   20  O9          0      64.114   3.503 -23.578  1.00  0.00    -0.357 OA
HETATM   21  H9          0      64.438   4.005 -24.316  1.00  0.00     0.218 HD
ENDBRANCH  17  20
BRANCH  18  22
HETATM   22  O11         0      64.598   2.814 -20.893  1.00  0.00    -0.357 OA
HETATM   23  H11         0      64.989   2.801 -20.027  1.00  0.00     0.218 HD
ENDBRANCH  18  22
ENDBRANCH   4  14
BRANCH   8  24
HETATM   24  O17         0      62.030  12.682 -22.088  1.00  0.00    -0.359 OA
HETATM   25  H17         0      61.110  12.614 -22.314  1.00  0.00     0.218 HD
ENDBRANCH   8  24
TORSDOF 5
ENDMDL
MODEL 9
REMARK VINA RESULT:      -2.5      2.545      2.890
REMARK  5 active torsions:
REMARK  status: ('A' for Active; 'I' for Inactive)
REMARK    1  A    between atoms: C4_4  and  C5_5 
REMARK    2  A    between atoms: C8_8  and  O9_9 
REMARK    3  A    between atoms: C10_11  and  O11_12 
REMARK    4  A    between atoms: C16_18  and  O17_19 
REMARK    5  A    between atoms: C19_22  and  O20_23 
ROOT
HETATM    1  O1          0      66.570   6.582 -21.727  1.00  0.00    -0.286 OA
HETATM    2  C2          0      65.330   6.366 -21.642  1.00  0.00     0.201 C 
HETATM    3  C3          0      64.804   5.252 -21.012  1.00  0.00     0.067 C 
HETATM    4  C4          0      63.439   4.985 -21.023  1.00  0.00     0.103 C 
HETATM    5  O13         0      62.632   5.834 -21.635  1.00  0.00    -0.307 OA
HETATM    6  C14         0      63.083   6.887 -22.280  1.00  0.00     0.107 C 
HETATM    7  C15         0      62.320   7.540 -23.237  1.00  0.00     0.049 C 
HETATM    8  C16         0      62.883   8.482 -24.090  1.00  0.00     0.093 C 
HETATM    9  C18         0      64.031   9.098 -23.607  1.00  0.00     0.048 C 
HETATM   10  C19         0      64.793   8.494 -22.616  1.00  0.00     0.096 C 
HETATM   11  C21         0      64.402   7.289 -22.099  1.00  0.00     0.084 C 
ENDROOT
BRANCH  10  12
HETATM   12  O20         0      66.122   8.873 -22.454  1.00  0.00    -0.359 OA
HETATM   13  H20         0      66.788   8.197 -22.509  1.00  0.00     0.218 HD
ENDBRANCH  10  12
BRANCH   4  14
HETATM   14  C5          0      63.029   3.585 -20.901  1.00  0.00     0.025 C 
HETATM   15  C6          0      62.214   3.127 -19.876  1.00  0.00     0.004 C 
HETATM   16  C7          0      61.263   2.161 -20.192  1.00  0.00     0.026 C 
HETATM   17  C8          0      61.213   1.571 -21.450  1.00  0.00     0.112 C 
HETATM   18  C10         0      62.406   1.615 -22.159  1.00  0.00     0.112 C 
HETATM   19  C12         0      63.301   2.641 -21.883  1.00  0.00     0.028 C 
BRANCH  17  20
HETATM   20  O9          0      60.006   1.177 -22.000  1.00  0.00    -0.357 OA
HETATM   21  H9          0      59.646   1.542 -22.800  1.00  0.00     0.218 HD
ENDBRANCH  17  20
BRANCH  18  22
HETATM   22  O11         0      62.465   0.880 -23.334  1.00  0.00    -0.357 OA
HETATM   23  H11         0      62.851   0.013 -23.281  1.00  0.00     0.218 HD
ENDBRANCH  18  22
ENDBRANCH   4  14
BRANCH   8  24
HETATM   24  O17         0      62.524   8.550 -25.441  1.00  0.00    -0.359 OA
HETATM   25  H17         0      63.175   8.646 -26.126  1.00  0.00     0.218 HD
ENDBRANCH   8  24
TORSDOF 5
ENDMDL
