MODEL 1
REMARK VINA RESULT:      -3.9      0.000      0.000
REMARK  5 active torsions:
REMARK  status: ('A' for Active; 'I' for Inactive)
REMARK    1  A    between atoms: C4_4  and  C5_5 
REMARK    2  A    between atoms: C8_8  and  O9_9 
REMARK    3  A    between atoms: C10_11  and  O11_12 
REMARK    4  A    between atoms: C16_18  and  O17_19 
REMARK    5  A    between atoms: C19_22  and  O20_23 
ROOT
HETATM    1  O1          0      57.971  93.609 -12.846  1.00  0.00    -0.286 OA
HETATM    2  C2          0      57.118  93.243 -13.701  1.00  0.00     0.201 C 
HETATM    3  C3          0      56.782  94.013 -14.802  1.00  0.00     0.067 C 
HETATM    4  C4          0      55.766  93.634 -15.673  1.00  0.00     0.103 C 
HETATM    5  O13         0      55.126  92.501 -15.447  1.00  0.00    -0.307 OA
HETATM    6  C14         0      55.380  91.752 -14.396  1.00  0.00     0.107 C 
HETATM    7  C15         0      54.476  90.805 -13.937  1.00  0.00     0.049 C 
HETATM    8  C16         0      54.630  90.202 -12.695  1.00  0.00     0.093 C 
HETATM    9  C18         0      55.933  90.180 -12.211  1.00  0.00     0.048 C 
HETATM   10  C19         0      56.876  91.083 -12.682  1.00  0.00     0.096 C 
HETATM   11  C21         0      56.525  91.992 -13.643  1.00  0.00     0.084 C 
ENDROOT
BRANCH  10  12
HETATM   12  O20         0      58.006  91.348 -11.916  1.00  0.00    -0.359 OA
HETATM   13  H20         0      58.852  91.329 -12.348  1.00  0.00     0.218 HD
ENDBRANCH  10  12
BRANCH   4  14
HETATM   14  C5          0      55.076  94.701 -16.400  1.00  0.00     0.025 C 
HETATM   15  C6          0      55.591  95.284 -17.549  1.00  0.00     0.004 C 
HETATM   16  C7          0      54.697  95.610 -18.563  1.00  0.00     0.026 C 
HETATM   17  C8          0      53.323  95.487 -18.392  1.00  0.00     0.112 C 
HETATM   18  C10         0      52.898  95.517 -17.070  1.00  0.00     0.112 C 
HETATM   19  C12         0      53.785  95.104 -16.082  1.00  0.00     0.028 C 
BRANCH  17  20
HETATM   20  O9          0      52.503  95.149 -19.454  1.00  0.00    -0.357 OA
HETATM   21  H9          0      52.127  94.285 -19.578  1.00  0.00     0.218 HD
ENDBRANCH  17  20
BRANCH  18  22
HETATM   22  O11         0      51.530  95.588 -16.850  1.00  0.00    -0.357 OA
HETATM   23  H11         0      51.140  94.890 -16.336  1.00  0.00     0.218 HD
ENDBRANCH  18  22
ENDBRANCH   4  14
BRANCH   8  24
HETATM   24  O17         0      53.532  89.952 -11.864  1.00  0.00    -0.359 OA
HETATM   25  H17         0      53.175  89.078 -11.758  1.00  0.00     0.218 HD
ENDBRANCH   8  24
TORSDOF 5
ENDMDL
MODEL 2
REMARK VINA RESULT:      -3.3      1.621      6.369
REMARK  5 active torsions:
REMARK  status: ('A' for Active; 'I' for Inactive)
REMARK    1  A    between atoms: C4_4  and  C5_5 
REMARK    2  A    between atoms: C8_8  and  O9_9 
REMARK    3  A    between atoms: C10_11  and  O11_12 
REMARK    4  A    between atoms: C16_18  and  O17_19 
REMARK    5  A    between atoms: C19_22  and  O20_23 
ROOT
HETATM    1  O1          0      57.491  93.061 -18.139  1.00  0.00    -0.286 OA
HETATM    2  C2          0      56.870  93.285 -17.064  1.00  0.00     0.201 C 
HETATM    3  C3          0      57.136  92.604 -15.888  1.00  0.00     0.067 C 
HETATM    4  C4          0      56.369  92.796 -14.745  1.00  0.00     0.103 C 
HETATM    5  O13         0      55.376  93.667 -14.786  1.00  0.00    -0.307 OA
HETATM    6  C14         0      55.056  94.312 -15.887  1.00  0.00     0.107 C 
HETATM    7  C15         0      53.811  94.901 -16.054  1.00  0.00     0.049 C 
HETATM    8  C16         0      53.388  95.354 -17.298  1.00  0.00     0.093 C 
HETATM    9  C18         0      54.410  95.673 -18.185  1.00  0.00     0.048 C 
HETATM   10  C19         0      55.680  95.138 -18.020  1.00  0.00     0.096 C 
HETATM   11  C21         0      55.934  94.303 -16.966  1.00  0.00     0.084 C 
ENDROOT
BRANCH  10  12
HETATM   12  O20         0      56.548  95.099 -19.107  1.00  0.00    -0.359 OA
HETATM   13  H20         0      57.191  94.401 -19.139  1.00  0.00     0.218 HD
ENDBRANCH  10  12
BRANCH   4  14
HETATM   14  C5          0      56.293  91.686 -13.794  1.00  0.00     0.025 C 
HETATM   15  C6          0      57.350  91.329 -12.970  1.00  0.00     0.004 C 
HETATM   16  C7          0      57.048  90.925 -11.673  1.00  0.00     0.026 C 
HETATM   17  C8          0      55.734  90.752 -11.250  1.00  0.00     0.112 C 
HETATM   18  C10         0      54.823  90.514 -12.271  1.00  0.00     0.112 C 
HETATM   19  C12         0      55.111  91.003 -13.540  1.00  0.00     0.028 C 
BRANCH  17  20
HETATM   20  O9          0      55.370  91.015  -9.942  1.00  0.00    -0.357 OA
HETATM   21  H9          0      55.990  91.232  -9.255  1.00  0.00     0.218 HD
ENDBRANCH  17  20
BRANCH  18  22
HETATM   22  O11         0      53.539  90.149 -11.894  1.00  0.00    -0.357 OA
HETATM   23  H11         0      52.827  90.448 -12.448  1.00  0.00     0.218 HD
ENDBRANCH  18  22
ENDBRANCH   4  14
BRANCH   8  24
HETATM   24  O17         0      52.069  95.176 -17.729  1.00  0.00    -0.359 OA
HETATM   25  H17         0      51.334  95.253 -17.131  1.00  0.00     0.218 HD
ENDBRANCH   8  24
TORSDOF 5
ENDMDL
MODEL 3
REMARK VINA RESULT:      -3.2      4.226      6.991
REMARK  5 active torsions:
REMARK  status: ('A' for Active; 'I' for Inactive)
REMARK    1  A    between atoms: C4_4  and  C5_5 
REMARK    2  A    between atoms: C8_8  and  O9_9 
REMARK    3  A    between atoms: C10_11  and  O11_12 
REMARK    4  A    between atoms: C16_18  and  O17_19 
REMARK    5  A    between atoms: C19_22  and  O20_23 
ROOT
HETATM    1  O1          0      56.047  96.102 -13.794  1.00  0.00    -0.286 OA
HETATM    2  C2          0      54.832  96.441 -13.787  1.00  0.00     0.201 C 
HETATM    3  C3          0      54.113  96.634 -12.620  1.00  0.00     0.067 C 
HETATM    4  C4          0      52.750  96.906 -12.640  1.00  0.00     0.103 C 
HETATM    5  O13         0      52.139  96.999 -13.808  1.00  0.00    -0.307 OA
HETATM    6  C14         0      52.766  96.788 -14.944  1.00  0.00     0.107 C 
HETATM    7  C15         0      52.080  96.490 -16.113  1.00  0.00     0.049 C 
HETATM    8  C16         0      52.744  96.021 -17.240  1.00  0.00     0.093 C 
HETATM    9  C18         0      54.088  96.367 -17.316  1.00  0.00     0.048 C 
HETATM   10  C19         0      54.793  96.716 -16.172  1.00  0.00     0.096 C 
HETATM   11  C21         0      54.155  96.735 -14.961  1.00  0.00     0.084 C 
ENDROOT
BRANCH  10  12
HETATM   12  O20         0      56.182  96.633 -16.177  1.00  0.00    -0.359 OA
HETATM   13  H20         0      56.635  96.710 -15.346  1.00  0.00     0.218 HD
ENDBRANCH  10  12
BRANCH   4  14
HETATM   14  C5          0      51.970  96.508 -11.466  1.00  0.00     0.025 C 
HETATM   15  C6          0      50.584  96.460 -11.466  1.00  0.00     0.004 C 
HETATM   16  C7          0      49.975  95.420 -10.771  1.00  0.00     0.026 C 
HETATM   17  C8          0      50.711  94.534  -9.991  1.00  0.00     0.112 C 
HETATM   18  C10         0      51.935  95.026  -9.555  1.00  0.00     0.112 C 
HETATM   19  C12         0      52.562  96.006 -10.315  1.00  0.00     0.028 C 
BRANCH  17  20
HETATM   20  O9          0      50.324  93.213  -9.862  1.00  0.00    -0.357 OA
HETATM   21  H9          0      49.721  92.779 -10.455  1.00  0.00     0.218 HD
ENDBRANCH  17  20
BRANCH  18  22
HETATM   22  O11         0      52.622  94.261  -8.623  1.00  0.00    -0.357 OA
HETATM   23  H11         0      52.638  93.322  -8.765  1.00  0.00     0.218 HD
ENDBRANCH  18  22
ENDBRANCH   4  14
BRANCH   8  24
HETATM   24  O17         0      52.199  95.011 -18.040  1.00  0.00    -0.359 OA
HETATM   25  H17         0      51.339  95.098 -18.436  1.00  0.00     0.218 HD
ENDBRANCH   8  24
TORSDOF 5
ENDMDL
MODEL 4
REMARK VINA RESULT:      -3.2      4.782      5.643
REMARK  5 active torsions:
REMARK  status: ('A' for Active; 'I' for Inactive)
REMARK    1  A    between atoms: C4_4  and  C5_5 
REMARK    2  A    between atoms: C8_8  and  O9_9 
REMARK    3  A    between atoms: C10_11  and  O11_12 
REMARK    4  A    between atoms: C16_18  and  O17_19 
REMARK    5  A    between atoms: C19_22  and  O20_23 
ROOT
HETATM    1  O1          0      49.947  96.796 -10.691  1.00  0.00    -0.286 OA
HETATM    2  C2          0      51.157  96.739 -11.042  1.00  0.00     0.201 C 
HETATM    3  C3          0      51.605  97.196 -12.270  1.00  0.00     0.067 C 
HETATM    4  C4          0      52.925  97.029 -12.673  1.00  0.00     0.103 C 
HETATM    5  O13         0      53.770  96.436 -11.848  1.00  0.00    -0.307 OA
HETATM    6  C14         0      53.389  95.950 -10.687  1.00  0.00     0.107 C 
HETATM    7  C15         0      54.139  94.999 -10.010  1.00  0.00     0.049 C 
HETATM    8  C16         0      53.617  94.307  -8.924  1.00  0.00     0.093 C 
HETATM    9  C18         0      52.590  94.958  -8.252  1.00  0.00     0.048 C 
HETATM   10  C19         0      51.849  95.947  -8.884  1.00  0.00     0.096 C 
HETATM   11  C21         0      52.143  96.296 -10.174  1.00  0.00     0.084 C 
ENDROOT
BRANCH  10  12
HETATM   12  O20         0      50.589  96.273  -8.391  1.00  0.00    -0.359 OA
HETATM   13  H20         0      49.886  95.648  -8.518  1.00  0.00     0.218 HD
ENDBRANCH  10  12
BRANCH   4  14
HETATM   14  C5          0      53.183  96.965 -14.112  1.00  0.00     0.025 C 
HETATM   15  C6          0      54.133  96.120 -14.669  1.00  0.00     0.004 C 
HETATM   16  C7          0      53.822  95.511 -15.881  1.00  0.00     0.026 C 
HETATM   17  C8          0      52.666  95.833 -16.584  1.00  0.00     0.112 C 
HETATM   18  C10         0      52.139  97.084 -16.292  1.00  0.00     0.112 C 
HETATM   19  C12         0      52.395  97.632 -15.040  1.00  0.00     0.028 C 
BRANCH  17  20
HETATM   20  O9          0      52.007  94.879 -17.339  1.00  0.00    -0.357 OA
HETATM   21  H9          0      51.715  95.023 -18.232  1.00  0.00     0.218 HD
ENDBRANCH  17  20
BRANCH  18  22
HETATM   22  O11         0      51.101  97.532 -17.096  1.00  0.00    -0.357 OA
HETATM   23  H11         0      50.972  98.472 -17.147  1.00  0.00     0.218 HD
ENDBRANCH  18  22
ENDBRANCH   4  14
BRANCH   8  24
HETATM   24  O17         0      53.869  92.943  -8.740  1.00  0.00    -0.359 OA
HETATM   25  H17         0      54.729  92.623  -8.493  1.00  0.00     0.218 HD
ENDBRANCH   8  24
TORSDOF 5
ENDMDL
MODEL 5
REMARK VINA RESULT:      -2.9      3.094      4.936
REMARK  5 active torsions:
REMARK  status: ('A' for Active; 'I' for Inactive)
REMARK    1  A    between atoms: C4_4  and  C5_5 
REMARK    2  A    between atoms: C8_8  and  O9_9 
REMARK    3  A    between atoms: C10_11  and  O11_12 
REMARK    4  A    between atoms: C16_18  and  O17_19 
REMARK    5  A    between atoms: C19_22  and  O20_23 
ROOT
HETATM    1  O1          0      54.656  94.252  -9.766  1.00  0.00    -0.286 OA
HETATM    2  C2          0      54.832  93.106 -10.263  1.00  0.00     0.201 C 
HETATM    3  C3          0      55.765  92.853 -11.255  1.00  0.00     0.067 C 
HETATM    4  C4          0      55.867  91.605 -11.858  1.00  0.00     0.103 C 
HETATM    5  O13         0      55.064  90.637 -11.453  1.00  0.00    -0.307 OA
HETATM    6  C14         0      54.136  90.833 -10.542  1.00  0.00     0.107 C 
HETATM    7  C15         0      53.056  89.974 -10.402  1.00  0.00     0.049 C 
HETATM    8  C16         0      51.958  90.317  -9.622  1.00  0.00     0.093 C 
HETATM    9  C18         0      52.215  91.244  -8.620  1.00  0.00     0.048 C 
HETATM   10  C19         0      53.315  92.088  -8.706  1.00  0.00     0.096 C 
HETATM   11  C21         0      54.161  91.994  -9.777  1.00  0.00     0.084 C 
ENDROOT
BRANCH  10  12
HETATM   12  O20         0      53.327  93.266  -7.966  1.00  0.00    -0.359 OA
HETATM   13  H20         0      53.660  94.051  -8.384  1.00  0.00     0.218 HD
ENDBRANCH  10  12
BRANCH   4  14
HETATM   14  C5          0      56.390  91.562 -13.225  1.00  0.00     0.025 C 
HETATM   15  C6          0      57.095  90.478 -13.726  1.00  0.00     0.004 C 
HETATM   16  C7          0      56.864  90.115 -15.049  1.00  0.00     0.026 C 
HETATM   17  C8          0      56.062  90.883 -15.887  1.00  0.00     0.112 C 
HETATM   18  C10         0      55.938  92.213 -15.511  1.00  0.00     0.112 C 
HETATM   19  C12         0      56.089  92.536 -14.167  1.00  0.00     0.028 C 
BRANCH  17  20
HETATM   20  O9          0      55.299  90.289 -16.877  1.00  0.00    -0.357 OA
HETATM   21  H9          0      55.529  89.472 -17.302  1.00  0.00     0.218 HD
ENDBRANCH  17  20
BRANCH  18  22
HETATM   22  O11         0      55.308  93.064 -16.408  1.00  0.00    -0.357 OA
HETATM   23  H11         0      54.639  92.682 -16.965  1.00  0.00     0.218 HD
ENDBRANCH  18  22
ENDBRANCH   4  14
BRANCH   8  24
HETATM   24  O17         0      50.653  90.016 -10.029  1.00  0.00    -0.359 OA
HETATM   25  H17         0      49.994  89.719  -9.413  1.00  0.00     0.218 HD
ENDBRANCH   8  24
TORSDOF 5
ENDMDL
MODEL 6
REMARK VINA RESULT:      -2.8      1.897      6.570
REMARK  5 active torsions:
REMARK  status: ('A' for Active; 'I' for Inactive)
REMARK    1  A    between atoms: C4_4  and  C5_5 
REMARK    2  A    between atoms: C8_8  and  O9_9 
REMARK    3  A    between atoms: C10_11  and  O11_12 
REMARK    4  A    between atoms: C16_18  and  O17_19 
REMARK    5  A    between atoms: C19_22  and  O20_23 
ROOT
HETATM    1  O1          0      54.039  95.663 -18.906  1.00  0.00    -0.286 OA
HETATM    2  C2          0      54.258  95.576 -17.667  1.00  0.00     0.201 C 
HETATM    3  C3          0      55.092  94.618 -17.117  1.00  0.00     0.067 C 
HETATM    4  C4          0      55.236  94.480 -15.741  1.00  0.00     0.103 C 
HETATM    5  O13         0      54.570  95.301 -14.948  1.00  0.00    -0.307 OA
HETATM    6  C14         0      53.736  96.203 -15.417  1.00  0.00     0.107 C 
HETATM    7  C15         0      52.757  96.778 -14.619  1.00  0.00     0.049 C 
HETATM    8  C16         0      51.726  97.529 -15.171  1.00  0.00     0.093 C 
HETATM    9  C18         0      52.012  98.101 -16.404  1.00  0.00     0.048 C 
HETATM   10  C19         0      53.017  97.580 -17.208  1.00  0.00     0.096 C 
HETATM   11  C21         0      53.744  96.504 -16.774  1.00  0.00     0.084 C 
ENDROOT
BRANCH  10  12
HETATM   12  O20         0      53.009  97.854 -18.572  1.00  0.00    -0.359 OA
HETATM   13  H20         0      53.188  97.140 -19.171  1.00  0.00     0.218 HD
ENDBRANCH  10  12
BRANCH   4  14
HETATM   14  C5          0      55.604  93.156 -15.236  1.00  0.00     0.025 C 
HETATM   15  C6          0      56.735  92.934 -14.464  1.00  0.00     0.004 C 
HETATM   16  C7          0      56.636  92.016 -13.423  1.00  0.00     0.026 C 
HETATM   17  C8          0      55.493  91.245 -13.238  1.00  0.00     0.112 C 
HETATM   18  C10         0      54.717  91.076 -14.376  1.00  0.00     0.112 C 
HETATM   19  C12         0      54.772  92.052 -15.364  1.00  0.00     0.028 C 
BRANCH  17  20
HETATM   20  O9          0      55.085  90.877 -11.968  1.00  0.00    -0.357 OA
HETATM   21  H9          0      54.371  90.274 -11.797  1.00  0.00     0.218 HD
ENDBRANCH  17  20
BRANCH  18  22
HETATM   22  O11         0      53.673  90.165 -14.295  1.00  0.00    -0.357 OA
HETATM   23  H11         0      52.958  90.275 -14.911  1.00  0.00     0.218 HD
ENDBRANCH  18  22
ENDBRANCH   4  14
BRANCH   8  24
HETATM   24  O17         0      50.416  97.433 -14.690  1.00  0.00    -0.359 OA
HETATM   25  H17         0      50.093  98.003 -14.003  1.00  0.00     0.218 HD
ENDBRANCH   8  24
TORSDOF 5
ENDMDL
MODEL 7
REMARK VINA RESULT:      -2.7      5.206      6.146
REMARK  5 active torsions:
REMARK  status: ('A' for Active; 'I' for Inactive)
REMARK    1  A    between atoms: C4_4  and  C5_5 
REMARK    2  A    between atoms: C8_8  and  O9_9 
REMARK    3  A    between atoms: C10_11  and  O11_12 
REMARK    4  A    between atoms: C16_18  and  O17_19 
REMARK    5  A    between atoms: C19_22  and  O20_23 
ROOT
HETATM    1  O1          0      52.908 100.488 -11.610  1.00  0.00    -0.286 OA
HETATM    2  C2          0      53.209  99.287 -11.854  1.00  0.00     0.201 C 
HETATM    3  C3          0      53.780  98.885 -13.050  1.00  0.00     0.067 C 
HETATM    4  C4          0      54.008  97.543 -13.333  1.00  0.00     0.103 C 
HETATM    5  O13         0      53.687  96.639 -12.425  1.00  0.00    -0.307 OA
HETATM    6  C14         0      53.108  96.964 -11.290  1.00  0.00     0.107 C 
HETATM    7  C15         0      52.418  96.031 -10.529  1.00  0.00     0.049 C 
HETATM    8  C16         0      51.600  96.423  -9.475  1.00  0.00     0.093 C 
HETATM    9  C18         0      51.920  97.651  -8.909  1.00  0.00     0.048 C 
HETATM   10  C19         0      52.650  98.589  -9.626  1.00  0.00     0.096 C 
HETATM   11  C21         0      53.073  98.296 -10.894  1.00  0.00     0.084 C 
ENDROOT
BRANCH  10  12
HETATM   12  O20         0      52.591  99.928  -9.251  1.00  0.00    -0.359 OA
HETATM   13  H20         0      51.806 100.234  -8.814  1.00  0.00     0.218 HD
ENDBRANCH  10  12
BRANCH   4  14
HETATM   14  C5          0      54.025  97.151 -14.744  1.00  0.00     0.025 C 
HETATM   15  C6          0      54.680  96.016 -15.201  1.00  0.00     0.004 C 
HETATM   16  C7          0      54.069  95.282 -16.212  1.00  0.00     0.026 C 
HETATM   17  C8          0      52.913  95.731 -16.842  1.00  0.00     0.112 C 
HETATM   18  C10         0      52.711  97.103 -16.775  1.00  0.00     0.112 C 
HETATM   19  C12         0      53.263  97.800 -15.706  1.00  0.00     0.028 C 
BRANCH  17  20
HETATM   20  O9          0      51.962  94.836 -17.299  1.00  0.00    -0.357 OA
HETATM   21  H9          0      51.227  94.535 -16.778  1.00  0.00     0.218 HD
ENDBRANCH  17  20
BRANCH  18  22
HETATM   22  O11         0      51.681  97.625 -17.543  1.00  0.00    -0.357 OA
HETATM   23  H11         0      51.928  98.176 -18.277  1.00  0.00     0.218 HD
ENDBRANCH  18  22
ENDBRANCH   4  14
BRANCH   8  24
HETATM   24  O17         0      50.370  95.801  -9.237  1.00  0.00    -0.359 OA
HETATM   25  H17         0      50.305  94.866  -9.081  1.00  0.00     0.218 HD
ENDBRANCH   8  24
TORSDOF 5
ENDMDL
MODEL 8
REMARK VINA RESULT:      -2.7      5.105      7.697
REMARK  5 active torsions:
REMARK  status: ('A' for Active; 'I' for Inactive)
REMARK    1  A    between atoms: C4_4  and  C5_5 
REMARK    2  A    between atoms: C8_8  and  O9_9 
REMARK    3  A    between atoms: C10_11  and  O11_12 
REMARK    4  A    between atoms: C16_18  and  O17_19 
REMARK    5  A    between atoms: C19_22  and  O20_23 
ROOT
HETATM    1  O1          0      50.616  96.512 -16.329  1.00  0.00    -0.286 OA
HETATM    2  C2          0      51.473  96.686 -15.420  1.00  0.00     0.201 C 
HETATM    3  C3          0      51.185  97.339 -14.233  1.00  0.00     0.067 C 
HETATM    4  C4          0      52.172  97.607 -13.292  1.00  0.00     0.103 C 
HETATM    5  O13         0      53.408  97.208 -13.536  1.00  0.00    -0.307 OA
HETATM    6  C14         0      53.742  96.618 -14.663  1.00  0.00     0.107 C 
HETATM    7  C15         0      55.059  96.560 -15.095  1.00  0.00     0.049 C 
HETATM    8  C16         0      55.377  96.169 -16.390  1.00  0.00     0.093 C 
HETATM    9  C18         0      54.428  95.365 -17.010  1.00  0.00     0.048 C 
HETATM   10  C19         0      53.111  95.363 -16.572  1.00  0.00     0.096 C 
HETATM   11  C21         0      52.747  96.146 -15.512  1.00  0.00     0.084 C 
ENDROOT
BRANCH  10  12
HETATM   12  O20         0      52.109  94.921 -17.431  1.00  0.00    -0.359 OA
HETATM   13  H20         0      52.366  94.608 -18.290  1.00  0.00     0.218 HD
ENDBRANCH  10  12
BRANCH   4  14
HETATM   14  C5          0      51.965  98.761 -12.414  1.00  0.00     0.025 C 
HETATM   15  C6          0      50.932  99.668 -12.597  1.00  0.00     0.004 C 
HETATM   16  C7          0      50.304 100.168 -11.460  1.00  0.00     0.026 C 
HETATM   17  C8          0      50.773  99.881 -10.182  1.00  0.00     0.112 C 
HETATM   18  C10         0      52.114  99.525 -10.123  1.00  0.00     0.112 C 
HETATM   19  C12         0      52.694  98.949 -11.247  1.00  0.00     0.028 C 
BRANCH  17  20
HETATM   20  O9          0      49.899  99.762  -9.117  1.00  0.00    -0.357 OA
HETATM   21  H9          0      48.957  99.678  -9.213  1.00  0.00     0.218 HD
ENDBRANCH  17  20
BRANCH  18  22
HETATM   22  O11         0      52.679  99.413  -8.861  1.00  0.00    -0.357 OA
HETATM   23  H11         0      52.627 100.176  -8.297  1.00  0.00     0.218 HD
ENDBRANCH  18  22
ENDBRANCH   4  14
BRANCH   8  24
HETATM   24  O17         0      56.389  96.806 -17.117  1.00  0.00    -0.359 OA
HETATM   25  H17         0      57.308  96.661 -16.925  1.00  0.00     0.218 HD
ENDBRANCH   8  24
TORSDOF 5
ENDMDL
MODEL 9
REMARK VINA RESULT:      -2.7      2.860      6.135
REMARK  5 active torsions:
REMARK  status: ('A' for Active; 'I' for Inactive)
REMARK    1  A    between atoms: C4_4  and  C5_5 
REMARK    2  A    between atoms: C8_8  and  O9_9 
REMARK    3  A    between atoms: C10_11  and  O11_12 
REMARK    4  A    between atoms: C16_18  and  O17_19 
REMARK    5  A    between atoms: C19_22  and  O20_23 
ROOT
HETATM    1  O1          0      57.001  97.452 -15.396  1.00  0.00    -0.286 OA
HETATM    2  C2          0      56.140  96.530 -15.412  1.00  0.00     0.201 C 
HETATM    3  C3          0      56.446  95.213 -15.114  1.00  0.00     0.067 C 
HETATM    4  C4          0      55.503  94.200 -15.238  1.00  0.00     0.103 C 
HETATM    5  O13         0      54.282  94.514 -15.633  1.00  0.00    -0.307 OA
HETATM    6  C14         0      53.949  95.742 -15.965  1.00  0.00     0.107 C 
HETATM    7  C15         0      52.831  96.013 -16.741  1.00  0.00     0.049 C 
HETATM    8  C16         0      52.626  97.269 -17.298  1.00  0.00     0.093 C 
HETATM    9  C18         0      53.254  98.315 -16.634  1.00  0.00     0.048 C 
HETATM   10  C19         0      54.347  98.075 -15.812  1.00  0.00     0.096 C 
HETATM   11  C21         0      54.799  96.795 -15.641  1.00  0.00     0.084 C 
ENDROOT
BRANCH  10  12
HETATM   12  O20         0      55.216  99.119 -15.513  1.00  0.00    -0.359 OA
HETATM   13  H20         0      54.866 100.002 -15.507  1.00  0.00     0.218 HD
ENDBRANCH  10  12
BRANCH   4  14
HETATM   14  C5          0      56.002  92.848 -15.500  1.00  0.00     0.025 C 
HETATM   15  C6          0      55.367  91.708 -15.030  1.00  0.00     0.004 C 
HETATM   16  C7          0      55.334  90.597 -15.867  1.00  0.00     0.026 C 
HETATM   17  C8          0      56.023  90.573 -17.075  1.00  0.00     0.112 C 
HETATM   18  C10         0      57.093  91.454 -17.150  1.00  0.00     0.112 C 
HETATM   19  C12         0      57.061  92.601 -16.364  1.00  0.00     0.028 C 
BRANCH  17  20
HETATM   20  O9          0      55.525  89.875 -18.161  1.00  0.00    -0.357 OA
HETATM   21  H9          0      54.790  89.275 -18.111  1.00  0.00     0.218 HD
ENDBRANCH  17  20
BRANCH  18  22
HETATM   22  O11         0      57.926  91.339 -18.253  1.00  0.00    -0.357 OA
HETATM   23  H11         0      57.749  91.915 -18.988  1.00  0.00     0.218 HD
ENDBRANCH  18  22
ENDBRANCH   4  14
BRANCH   8  24
HETATM   24  O17         0      52.122  97.418 -18.595  1.00  0.00    -0.359 OA
HETATM   25  H17         0      52.176  98.245 -19.060  1.00  0.00     0.218 HD
ENDBRANCH   8  24
TORSDOF 5
ENDMDL
