MODEL 1
REMARK VINA RESULT:      -8.0      0.000      0.000
REMARK  5 active torsions:
REMARK  status: ('A' for Active; 'I' for Inactive)
REMARK    1  A    between atoms: C4_4  and  C5_5 
REMARK    2  A    between atoms: C8_8  and  O9_9 
REMARK    3  A    between atoms: C10_11  and  O11_12 
REMARK    4  A    between atoms: C16_18  and  O17_19 
REMARK    5  A    between atoms: C19_22  and  O20_23 
ROOT
HETATM    1  O1          0      47.607  55.008   3.736  1.00  0.00    -0.286 OA
HETATM    2  C2          0      46.817  55.971   3.936  1.00  0.00     0.201 C 
HETATM    3  C3          0      47.109  57.014   4.798  1.00  0.00     0.067 C 
HETATM    4  C4          0      46.179  58.009   5.078  1.00  0.00     0.103 C 
HETATM    5  O13         0      44.998  57.959   4.487  1.00  0.00    -0.307 OA
HETATM    6  C14         0      44.657  56.970   3.690  1.00  0.00     0.107 C 
HETATM    7  C15         0      43.329  56.696   3.393  1.00  0.00     0.049 C 
HETATM    8  C16         0      42.960  55.512   2.766  1.00  0.00     0.093 C 
HETATM    9  C18         0      43.959  54.914   2.006  1.00  0.00     0.048 C 
HETATM   10  C19         0      45.295  55.202   2.245  1.00  0.00     0.096 C 
HETATM   11  C21         0      45.632  56.095   3.226  1.00  0.00     0.084 C 
ENDROOT
BRANCH  10  12
HETATM   12  O20         0      46.272  54.312   1.810  1.00  0.00    -0.359 OA
HETATM   13  H20         0      46.365  53.490   2.277  1.00  0.00     0.218 HD
ENDBRANCH  10  12
BRANCH   4  14
HETATM   14  C5          0      46.291  58.685   6.372  1.00  0.00     0.025 C 
HETATM   15  C6          0      45.714  59.921   6.627  1.00  0.00     0.004 C 
HETATM   16  C7          0      45.158  60.125   7.886  1.00  0.00     0.026 C 
HETATM   17  C8          0      45.289  59.185   8.902  1.00  0.00     0.112 C 
HETATM   18  C10         0      46.373  58.328   8.763  1.00  0.00     0.112 C 
HETATM   19  C12         0      46.855  58.075   7.484  1.00  0.00     0.028 C 
BRANCH  17  20
HETATM   20  O9          0      44.285  59.009   9.838  1.00  0.00    -0.357 OA
HETATM   21  H9          0      43.677  58.279   9.830  1.00  0.00     0.218 HD
ENDBRANCH  17  20
BRANCH  18  22
HETATM   22  O11         0      46.659  57.498   9.838  1.00  0.00    -0.357 OA
HETATM   23  H11         0      45.980  56.890  10.105  1.00  0.00     0.218 HD
ENDBRANCH  18  22
ENDBRANCH   4  14
BRANCH   8  24
HETATM   24  O17         0      41.807  54.816   3.143  1.00  0.00    -0.359 OA
HETATM   25  H17         0      41.850  54.026   3.670  1.00  0.00     0.218 HD
ENDBRANCH   8  24
TORSDOF 5
ENDMDL
MODEL 2
REMARK VINA RESULT:      -7.9      2.600      6.323
REMARK  5 active torsions:
REMARK  status: ('A' for Active; 'I' for Inactive)
REMARK    1  A    between atoms: C4_4  and  C5_5 
REMARK    2  A    between atoms: C8_8  and  O9_9 
REMARK    3  A    between atoms: C10_11  and  O11_12 
REMARK    4  A    between atoms: C16_18  and  O17_19 
REMARK    5  A    between atoms: C19_22  and  O20_23 
ROOT
HETATM    1  O1          0      47.955  57.626   8.608  1.00  0.00    -0.286 OA
HETATM    2  C2          0      47.634  58.063   7.469  1.00  0.00     0.201 C 
HETATM    3  C3          0      46.376  57.878   6.921  1.00  0.00     0.067 C 
HETATM    4  C4          0      46.081  58.279   5.623  1.00  0.00     0.103 C 
HETATM    5  O13         0      47.025  58.868   4.910  1.00  0.00    -0.307 OA
HETATM    6  C14         0      48.246  59.034   5.369  1.00  0.00     0.107 C 
HETATM    7  C15         0      49.319  59.271   4.522  1.00  0.00     0.049 C 
HETATM    8  C16         0      50.629  59.191   4.977  1.00  0.00     0.093 C 
HETATM    9  C18         0      50.790  59.398   6.342  1.00  0.00     0.048 C 
HETATM   10  C19         0      49.724  59.216   7.213  1.00  0.00     0.096 C 
HETATM   11  C21         0      48.502  58.845   6.723  1.00  0.00     0.084 C 
ENDROOT
BRANCH  10  12
HETATM   12  O20         0      49.980  58.995   8.563  1.00  0.00    -0.359 OA
HETATM   13  H20         0      50.885  58.913   8.837  1.00  0.00     0.218 HD
ENDBRANCH  10  12
BRANCH   4  14
HETATM   14  C5          0      45.018  57.554   4.924  1.00  0.00     0.025 C 
HETATM   15  C6          0      44.498  57.972   3.708  1.00  0.00     0.004 C 
HETATM   16  C7          0      44.178  56.992   2.773  1.00  0.00     0.026 C 
HETATM   17  C8          0      44.245  55.638   3.083  1.00  0.00     0.112 C 
HETATM   18  C10         0      44.150  55.349   4.438  1.00  0.00     0.112 C 
HETATM   19  C12         0      44.557  56.315   5.350  1.00  0.00     0.028 C 
BRANCH  17  20
HETATM   20  O9          0      44.592  54.707   2.121  1.00  0.00    -0.357 OA
HETATM   21  H9          0      44.074  53.936   1.921  1.00  0.00     0.218 HD
ENDBRANCH  17  20
BRANCH  18  22
HETATM   22  O11         0      44.021  54.012   4.787  1.00  0.00    -0.357 OA
HETATM   23  H11         0      44.637  53.674   5.427  1.00  0.00     0.218 HD
ENDBRANCH  18  22
ENDBRANCH   4  14
BRANCH   8  24
HETATM   24  O17         0      51.640  58.620   4.196  1.00  0.00    -0.359 OA
HETATM   25  H17         0      51.755  57.679   4.139  1.00  0.00     0.218 HD
ENDBRANCH   8  24
TORSDOF 5
ENDMDL
MODEL 3
REMARK VINA RESULT:      -7.4      2.607      6.545
REMARK  5 active torsions:
REMARK  status: ('A' for Active; 'I' for Inactive)
REMARK    1  A    between atoms: C4_4  and  C5_5 
REMARK    2  A    between atoms: C8_8  and  O9_9 
REMARK    3  A    between atoms: C10_11  and  O11_12 
REMARK    4  A    between atoms: C16_18  and  O17_19 
REMARK    5  A    between atoms: C19_22  and  O20_23 
ROOT
HETATM    1  O1          0      48.192  57.160   8.748  1.00  0.00    -0.286 OA
HETATM    2  C2          0      47.902  57.334   7.533  1.00  0.00     0.201 C 
HETATM    3  C3          0      46.793  56.759   6.936  1.00  0.00     0.067 C 
HETATM    4  C4          0      46.554  56.883   5.572  1.00  0.00     0.103 C 
HETATM    5  O13         0      47.400  57.585   4.840  1.00  0.00    -0.307 OA
HETATM    6  C14         0      48.488  58.120   5.350  1.00  0.00     0.107 C 
HETATM    7  C15         0      49.558  58.500   4.553  1.00  0.00     0.049 C 
HETATM    8  C16         0      50.792  58.823   5.106  1.00  0.00     0.093 C 
HETATM    9  C18         0      50.747  59.256   6.426  1.00  0.00     0.048 C 
HETATM   10  C19         0      49.668  58.933   7.238  1.00  0.00     0.096 C 
HETATM   11  C21         0      48.632  58.198   6.731  1.00  0.00     0.084 C 
ENDROOT
BRANCH  10  12
HETATM   12  O20         0      49.820  58.979   8.621  1.00  0.00    -0.359 OA
HETATM   13  H20         0      50.126  59.790   9.008  1.00  0.00     0.218 HD
ENDBRANCH  10  12
BRANCH   4  14
HETATM   14  C5          0      45.780  55.819   4.928  1.00  0.00     0.025 C 
HETATM   15  C6          0      44.959  54.954   5.636  1.00  0.00     0.004 C 
HETATM   16  C7          0      43.753  54.584   5.048  1.00  0.00     0.026 C 
HETATM   17  C8          0      43.433  54.953   3.746  1.00  0.00     0.112 C 
HETATM   18  C10         0      44.526  55.244   2.941  1.00  0.00     0.112 C 
HETATM   19  C12         0      45.693  55.693   3.548  1.00  0.00     0.028 C 
BRANCH  17  20
HETATM   20  O9          0      42.122  55.206   3.382  1.00  0.00    -0.357 OA
HETATM   21  H9          0      41.581  54.593   2.899  1.00  0.00     0.218 HD
ENDBRANCH  17  20
BRANCH  18  22
HETATM   22  O11         0      44.278  55.433   1.589  1.00  0.00    -0.357 OA
HETATM   23  H11         0      44.958  55.158   0.984  1.00  0.00     0.218 HD
ENDBRANCH  18  22
ENDBRANCH   4  14
BRANCH   8  24
HETATM   24  O17         0      51.989  58.423   4.503  1.00  0.00    -0.359 OA
HETATM   25  H17         0      52.206  57.506   4.385  1.00  0.00     0.218 HD
ENDBRANCH   8  24
TORSDOF 5
ENDMDL
MODEL 4
REMARK VINA RESULT:      -7.3      3.241      4.477
REMARK  5 active torsions:
REMARK  status: ('A' for Active; 'I' for Inactive)
REMARK    1  A    between atoms: C4_4  and  C5_5 
REMARK    2  A    between atoms: C8_8  and  O9_9 
REMARK    3  A    between atoms: C10_11  and  O11_12 
REMARK    4  A    between atoms: C16_18  and  O17_19 
REMARK    5  A    between atoms: C19_22  and  O20_23 
ROOT
HETATM    1  O1          0      46.051  55.373   1.506  1.00  0.00    -0.286 OA
HETATM    2  C2          0      46.319  56.142   2.470  1.00  0.00     0.201 C 
HETATM    3  C3          0      47.308  57.109   2.406  1.00  0.00     0.067 C 
HETATM    4  C4          0      47.652  57.873   3.515  1.00  0.00     0.103 C 
HETATM    5  O13         0      47.000  57.678   4.648  1.00  0.00    -0.307 OA
HETATM    6  C14         0      46.078  56.748   4.773  1.00  0.00     0.107 C 
HETATM    7  C15         0      45.685  56.271   6.014  1.00  0.00     0.049 C 
HETATM    8  C16         0      44.909  55.125   6.134  1.00  0.00     0.093 C 
HETATM    9  C18         0      44.137  54.819   5.020  1.00  0.00     0.048 C 
HETATM   10  C19         0      44.476  55.318   3.769  1.00  0.00     0.096 C 
HETATM   11  C21         0      45.568  56.131   3.636  1.00  0.00     0.084 C 
ENDROOT
BRANCH  10  12
HETATM   12  O20         0      43.993  54.682   2.629  1.00  0.00    -0.359 OA
HETATM   13  H20         0      44.622  54.278   2.045  1.00  0.00     0.218 HD
ENDBRANCH  10  12
BRANCH   4  14
HETATM   14  C5          0      49.019  58.396   3.570  1.00  0.00     0.025 C 
HETATM   15  C6          0      49.302  59.750   3.674  1.00  0.00     0.004 C 
HETATM   16  C7          0      50.373  60.125   4.479  1.00  0.00     0.026 C 
HETATM   17  C8          0      51.218  59.182   5.054  1.00  0.00     0.112 C 
HETATM   18  C10         0      51.247  57.956   4.403  1.00  0.00     0.112 C 
HETATM   19  C12         0      50.129  57.568   3.674  1.00  0.00     0.028 C 
BRANCH  17  20
HETATM   20  O9          0      51.798  59.410   6.290  1.00  0.00    -0.357 OA
HETATM   21  H9          0      52.205  60.232   6.538  1.00  0.00     0.218 HD
ENDBRANCH  17  20
BRANCH  18  22
HETATM   22  O11         0      52.209  57.046   4.819  1.00  0.00    -0.357 OA
HETATM   23  H11         0      52.479  56.388   4.189  1.00  0.00     0.218 HD
ENDBRANCH  18  22
ENDBRANCH   4  14
BRANCH   8  24
HETATM   24  O17         0      45.144  54.187   7.146  1.00  0.00    -0.359 OA
HETATM   25  H17         0      44.436  53.701   7.551  1.00  0.00     0.218 HD
ENDBRANCH   8  24
TORSDOF 5
ENDMDL
MODEL 5
REMARK VINA RESULT:      -7.1      3.000      5.792
REMARK  5 active torsions:
REMARK  status: ('A' for Active; 'I' for Inactive)
REMARK    1  A    between atoms: C4_4  and  C5_5 
REMARK    2  A    between atoms: C8_8  and  O9_9 
REMARK    3  A    between atoms: C10_11  and  O11_12 
REMARK    4  A    between atoms: C16_18  and  O17_19 
REMARK    5  A    between atoms: C19_22  and  O20_23 
ROOT
HETATM    1  O1          0      49.969  55.621   5.349  1.00  0.00    -0.286 OA
HETATM    2  C2          0      49.112  56.538   5.216  1.00  0.00     0.201 C 
HETATM    3  C3          0      47.770  56.359   5.504  1.00  0.00     0.067 C 
HETATM    4  C4          0      46.832  57.353   5.252  1.00  0.00     0.103 C 
HETATM    5  O13         0      47.244  58.500   4.743  1.00  0.00    -0.307 OA
HETATM    6  C14         0      48.501  58.709   4.416  1.00  0.00     0.107 C 
HETATM    7  C15         0      48.869  59.716   3.536  1.00  0.00     0.049 C 
HETATM    8  C16         0      50.150  59.772   2.998  1.00  0.00     0.093 C 
HETATM    9  C18         0      51.132  59.145   3.756  1.00  0.00     0.048 C 
HETATM   10  C19         0      50.793  58.166   4.679  1.00  0.00     0.096 C 
HETATM   11  C21         0      49.480  57.826   4.857  1.00  0.00     0.084 C 
ENDROOT
BRANCH  10  12
HETATM   12  O20         0      51.764  57.261   5.099  1.00  0.00    -0.359 OA
HETATM   13  H20         0      52.475  57.589   5.637  1.00  0.00     0.218 HD
ENDBRANCH  10  12
BRANCH   4  14
HETATM   14  C5          0      45.454  56.925   5.002  1.00  0.00     0.025 C 
HETATM   15  C6          0      44.632  57.543   4.071  1.00  0.00     0.004 C 
HETATM   16  C7          0      43.782  56.734   3.324  1.00  0.00     0.026 C 
HETATM   17  C8          0      43.654  55.374   3.585  1.00  0.00     0.112 C 
HETATM   18  C10         0      43.999  54.996   4.875  1.00  0.00     0.112 C 
HETATM   19  C12         0      44.917  55.777   5.569  1.00  0.00     0.028 C 
BRANCH  17  20
HETATM   20  O9          0      43.407  54.476   2.561  1.00  0.00    -0.357 OA
HETATM   21  H9          0      43.864  54.486   1.728  1.00  0.00     0.218 HD
ENDBRANCH  17  20
BRANCH  18  22
HETATM   22  O11         0      43.712  53.690   5.246  1.00  0.00    -0.357 OA
HETATM   23  H11         0      44.352  53.027   5.013  1.00  0.00     0.218 HD
ENDBRANCH  18  22
ENDBRANCH   4  14
BRANCH   8  24
HETATM   24  O17         0      50.365  60.124   1.661  1.00  0.00    -0.359 OA
HETATM   25  H17         0      50.035  59.594   0.946  1.00  0.00     0.218 HD
ENDBRANCH   8  24
TORSDOF 5
ENDMDL
MODEL 6
REMARK VINA RESULT:      -6.9      1.973      6.848
REMARK  5 active torsions:
REMARK  status: ('A' for Active; 'I' for Inactive)
REMARK    1  A    between atoms: C4_4  and  C5_5 
REMARK    2  A    between atoms: C8_8  and  O9_9 
REMARK    3  A    between atoms: C10_11  and  O11_12 
REMARK    4  A    between atoms: C16_18  and  O17_19 
REMARK    5  A    between atoms: C19_22  and  O20_23 
ROOT
HETATM    1  O1          0      44.374  58.097   7.118  1.00  0.00    -0.286 OA
HETATM    2  C2          0      45.290  58.440   6.322  1.00  0.00     0.201 C 
HETATM    3  C3          0      45.301  58.071   4.987  1.00  0.00     0.067 C 
HETATM    4  C4          0      46.373  58.375   4.156  1.00  0.00     0.103 C 
HETATM    5  O13         0      47.393  59.051   4.657  1.00  0.00    -0.307 OA
HETATM    6  C14         0      47.449  59.393   5.925  1.00  0.00     0.107 C 
HETATM    7  C15         0      48.647  59.731   6.538  1.00  0.00     0.049 C 
HETATM    8  C16         0      48.744  59.841   7.920  1.00  0.00     0.093 C 
HETATM    9  C18         0      47.550  60.124   8.572  1.00  0.00     0.048 C 
HETATM   10  C19         0      46.332  59.842   7.968  1.00  0.00     0.096 C 
HETATM   11  C21         0      46.307  59.296   6.713  1.00  0.00     0.084 C 
ENDROOT
BRANCH  10  12
HETATM   12  O20         0      45.194  59.713   8.758  1.00  0.00    -0.359 OA
HETATM   13  H20         0      45.119  58.943   9.308  1.00  0.00     0.218 HD
ENDBRANCH  10  12
BRANCH   4  14
HETATM   14  C5          0      46.608  57.490   3.014  1.00  0.00     0.025 C 
HETATM   15  C6          0      47.837  57.391   2.379  1.00  0.00     0.004 C 
HETATM   16  C7          0      48.239  56.132   1.946  1.00  0.00     0.026 C 
HETATM   17  C8          0      47.393  55.030   2.019  1.00  0.00     0.112 C 
HETATM   18  C10         0      46.041  55.340   2.059  1.00  0.00     0.112 C 
HETATM   19  C12         0      45.661  56.573   2.576  1.00  0.00     0.028 C 
BRANCH  17  20
HETATM   20  O9          0      47.898  53.763   2.247  1.00  0.00    -0.357 OA
HETATM   21  H9          0      48.600  53.374   1.738  1.00  0.00     0.218 HD
ENDBRANCH  17  20
BRANCH  18  22
HETATM   22  O11         0      45.150  54.283   1.942  1.00  0.00    -0.357 OA
HETATM   23  H11         0      44.842  53.888   2.750  1.00  0.00     0.218 HD
ENDBRANCH  18  22
ENDBRANCH   4  14
BRANCH   8  24
HETATM   24  O17         0      49.867  59.373   8.612  1.00  0.00    -0.359 OA
HETATM   25  H17         0      49.962  59.494   9.549  1.00  0.00     0.218 HD
ENDBRANCH   8  24
TORSDOF 5
ENDMDL
MODEL 7
REMARK VINA RESULT:      -6.5      2.190      2.780
REMARK  5 active torsions:
REMARK  status: ('A' for Active; 'I' for Inactive)
REMARK    1  A    between atoms: C4_4  and  C5_5 
REMARK    2  A    between atoms: C8_8  and  O9_9 
REMARK    3  A    between atoms: C10_11  and  O11_12 
REMARK    4  A    between atoms: C16_18  and  O17_19 
REMARK    5  A    between atoms: C19_22  and  O20_23 
ROOT
HETATM    1  O1          0      45.925  56.142   1.448  1.00  0.00    -0.286 OA
HETATM    2  C2          0      45.589  56.530   2.600  1.00  0.00     0.201 C 
HETATM    3  C3          0      46.146  57.642   3.209  1.00  0.00     0.067 C 
HETATM    4  C4          0      45.833  57.989   4.518  1.00  0.00     0.103 C 
HETATM    5  O13         0      44.968  57.244   5.183  1.00  0.00    -0.307 OA
HETATM    6  C14         0      44.439  56.157   4.665  1.00  0.00     0.107 C 
HETATM    7  C15         0      43.866  55.174   5.459  1.00  0.00     0.049 C 
HETATM    8  C16         0      43.542  53.925   4.940  1.00  0.00     0.093 C 
HETATM    9  C18         0      43.320  53.899   3.569  1.00  0.00     0.048 C 
HETATM   10  C19         0      43.840  54.893   2.751  1.00  0.00     0.096 C 
HETATM   11  C21         0      44.563  55.916   3.301  1.00  0.00     0.084 C 
ENDROOT
BRANCH  10  12
HETATM   12  O20         0      43.994  54.643   1.391  1.00  0.00    -0.359 OA
HETATM   13  H20         0      44.418  55.308   0.861  1.00  0.00     0.218 HD
ENDBRANCH  10  12
BRANCH   4  14
HETATM   14  C5          0      46.840  58.740   5.270  1.00  0.00     0.025 C 
HETATM   15  C6          0      46.524  59.537   6.361  1.00  0.00     0.004 C 
HETATM   16  C7          0      47.411  59.543   7.433  1.00  0.00     0.026 C 
HETATM   17  C8          0      48.636  58.888   7.370  1.00  0.00     0.112 C 
HETATM   18  C10         0      49.118  58.682   6.085  1.00  0.00     0.112 C 
HETATM   19  C12         0      48.202  58.594   5.042  1.00  0.00     0.028 C 
BRANCH  17  20
HETATM   20  O9          0      49.192  58.315   8.500  1.00  0.00    -0.357 OA
HETATM   21  H9          0      48.686  57.871   9.171  1.00  0.00     0.218 HD
ENDBRANCH  17  20
BRANCH  18  22
HETATM   22  O11         0      50.416  58.205   5.969  1.00  0.00    -0.357 OA
HETATM   23  H11         0      50.944  58.564   5.265  1.00  0.00     0.218 HD
ENDBRANCH  18  22
ENDBRANCH   4  14
BRANCH   8  24
HETATM   24  O17         0      43.758  52.753   5.673  1.00  0.00    -0.359 OA
HETATM   25  H17         0      44.115  52.773   6.553  1.00  0.00     0.218 HD
ENDBRANCH   8  24
TORSDOF 5
ENDMDL
MODEL 8
REMARK VINA RESULT:      -6.4      2.804      5.855
REMARK  5 active torsions:
REMARK  status: ('A' for Active; 'I' for Inactive)
REMARK    1  A    between atoms: C4_4  and  C5_5 
REMARK    2  A    between atoms: C8_8  and  O9_9 
REMARK    3  A    between atoms: C10_11  and  O11_12 
REMARK    4  A    between atoms: C16_18  and  O17_19 
REMARK    5  A    between atoms: C19_22  and  O20_23 
ROOT
HETATM    1  O1          0      46.279  59.553   5.288  1.00  0.00    -0.286 OA
HETATM    2  C2          0      46.313  58.384   4.816  1.00  0.00     0.201 C 
HETATM    3  C3          0      45.206  57.553   4.786  1.00  0.00     0.067 C 
HETATM    4  C4          0      45.296  56.235   4.354  1.00  0.00     0.103 C 
HETATM    5  O13         0      46.466  55.779   3.946  1.00  0.00    -0.307 OA
HETATM    6  C14         0      47.556  56.513   3.988  1.00  0.00     0.107 C 
HETATM    7  C15         0      48.822  55.946   3.950  1.00  0.00     0.049 C 
HETATM    8  C16         0      49.956  56.691   4.250  1.00  0.00     0.093 C 
HETATM    9  C18         0      49.825  58.062   4.058  1.00  0.00     0.048 C 
HETATM   10  C19         0      48.570  58.655   4.044  1.00  0.00     0.096 C 
HETATM   11  C21         0      47.452  57.883   4.203  1.00  0.00     0.084 C 
ENDROOT
BRANCH  10  12
HETATM   12  O20         0      48.461  60.021   4.291  1.00  0.00    -0.359 OA
HETATM   13  H20         0      49.062  60.603   3.842  1.00  0.00     0.218 HD
ENDBRANCH  10  12
BRANCH   4  14
HETATM   14  C5          0      44.319  55.286   4.892  1.00  0.00     0.025 C 
HETATM   15  C6          0      43.076  55.076   4.312  1.00  0.00     0.004 C 
HETATM   16  C7          0      42.586  53.774   4.293  1.00  0.00     0.026 C 
HETATM   17  C8          0      43.243  52.737   4.946  1.00  0.00     0.112 C 
HETATM   18  C10         0      44.075  53.140   5.983  1.00  0.00     0.112 C 
HETATM   19  C12         0      44.620  54.417   5.934  1.00  0.00     0.028 C 
BRANCH  17  20
HETATM   20  O9          0      43.213  51.449   4.442  1.00  0.00    -0.357 OA
HETATM   21  H9          0      42.440  50.896   4.451  1.00  0.00     0.218 HD
ENDBRANCH  17  20
BRANCH  18  22
HETATM   22  O11         0      44.605  52.141   6.787  1.00  0.00    -0.357 OA
HETATM   23  H11         0      45.425  51.753   6.505  1.00  0.00     0.218 HD
ENDBRANCH  18  22
ENDBRANCH   4  14
BRANCH   8  24
HETATM   24  O17         0      51.008  56.150   4.996  1.00  0.00    -0.359 OA
HETATM   25  H17         0      51.450  55.352   4.730  1.00  0.00     0.218 HD
ENDBRANCH   8  24
TORSDOF 5
ENDMDL
MODEL 9
REMARK VINA RESULT:      -6.3      3.277      4.560
REMARK  5 active torsions:
REMARK  status: ('A' for Active; 'I' for Inactive)
REMARK    1  A    between atoms: C4_4  and  C5_5 
REMARK    2  A    between atoms: C8_8  and  O9_9 
REMARK    3  A    between atoms: C10_11  and  O11_12 
REMARK    4  A    between atoms: C16_18  and  O17_19 
REMARK    5  A    between atoms: C19_22  and  O20_23 
ROOT
HETATM    1  O1          0      46.346  55.809   7.429  1.00  0.00    -0.286 OA
HETATM    2  C2          0      46.720  55.832   6.224  1.00  0.00     0.201 C 
HETATM    3  C3          0      47.975  56.267   5.836  1.00  0.00     0.067 C 
HETATM    4  C4          0      48.326  56.379   4.495  1.00  0.00     0.103 C 
HETATM    5  O13         0      47.438  56.040   3.577  1.00  0.00    -0.307 OA
HETATM    6  C14         0      46.220  55.655   3.890  1.00  0.00     0.107 C 
HETATM    7  C15         0      45.184  55.685   2.967  1.00  0.00     0.049 C 
HETATM    8  C16         0      43.862  55.526   3.362  1.00  0.00     0.093 C 
HETATM    9  C18         0      43.684  54.831   4.552  1.00  0.00     0.048 C 
HETATM   10  C19         0      44.715  54.742   5.478  1.00  0.00     0.096 C 
HETATM   11  C21         0      45.922  55.328   5.208  1.00  0.00     0.084 C 
ENDROOT
BRANCH  10  12
HETATM   12  O20         0      44.415  54.445   6.804  1.00  0.00    -0.359 OA
HETATM   13  H20         0      43.506  54.485   7.074  1.00  0.00     0.218 HD
ENDBRANCH  10  12
BRANCH   4  14
HETATM   14  C5          0      49.354  57.363   4.152  1.00  0.00     0.025 C 
HETATM   15  C6          0      49.070  58.702   3.930  1.00  0.00     0.004 C 
HETATM   16  C7          0      49.985  59.641   4.397  1.00  0.00     0.026 C 
HETATM   17  C8          0      51.205  59.261   4.945  1.00  0.00     0.112 C 
HETATM   18  C10         0      51.652  58.007   4.550  1.00  0.00     0.112 C 
HETATM   19  C12         0      50.710  57.059   4.170  1.00  0.00     0.028 C 
BRANCH  17  20
HETATM   20  O9          0      51.788  60.001   5.958  1.00  0.00    -0.357 OA
HETATM   21  H9          0      51.528  59.944   6.870  1.00  0.00     0.218 HD
ENDBRANCH  17  20
BRANCH  18  22
HETATM   22  O11         0      52.945  57.657   4.915  1.00  0.00    -0.357 OA
HETATM   23  H11         0      53.630  57.818   4.276  1.00  0.00     0.218 HD
ENDBRANCH  18  22
ENDBRANCH   4  14
BRANCH   8  24
HETATM   24  O17         0      42.834  56.288   2.794  1.00  0.00    -0.359 OA
HETATM   25  H17         0      42.406  56.026   1.988  1.00  0.00     0.218 HD
ENDBRANCH   8  24
TORSDOF 5
ENDMDL
