MODEL 1
REMARK VINA RESULT:      -6.6      0.000      0.000
REMARK  5 active torsions:
REMARK  status: ('A' for Active; 'I' for Inactive)
REMARK    1  A    between atoms: C4_4  and  C5_5 
REMARK    2  A    between atoms: C8_8  and  O9_9 
REMARK    3  A    between atoms: C10_11  and  O11_12 
REMARK    4  A    between atoms: C16_18  and  O17_19 
REMARK    5  A    between atoms: C19_22  and  O20_23 
ROOT
HETATM    1  O1          0      43.729  67.561  12.615  1.00  0.00    -0.286 OA
HETATM    2  C2          0      44.378  67.092  11.640  1.00  0.00     0.201 C 
HETATM    3  C3          0      44.299  65.764  11.256  1.00  0.00     0.067 C 
HETATM    4  C4          0      45.102  65.250  10.244  1.00  0.00     0.103 C 
HETATM    5  O13         0      45.943  66.061   9.626  1.00  0.00    -0.307 OA
HETATM    6  C14         0      46.083  67.321   9.977  1.00  0.00     0.107 C 
HETATM    7  C15         0      47.207  68.055   9.628  1.00  0.00     0.049 C 
HETATM    8  C16         0      47.471  69.291  10.207  1.00  0.00     0.093 C 
HETATM    9  C18         0      46.355  69.958  10.698  1.00  0.00     0.048 C 
HETATM   10  C19         0      45.197  69.260  11.014  1.00  0.00     0.096 C 
HETATM   11  C21         0      45.148  67.906  10.823  1.00  0.00     0.084 C 
ENDROOT
BRANCH  10  12
HETATM   12  O20         0      44.275  69.830  11.886  1.00  0.00    -0.359 OA
HETATM   13  H20         0      43.359  69.608  11.773  1.00  0.00     0.218 HD
ENDBRANCH  10  12
BRANCH   4  14
HETATM   14  C5          0      45.413  63.820  10.297  1.00  0.00     0.025 C 
HETATM   15  C6          0      45.811  63.180  11.462  1.00  0.00     0.004 C 
HETATM   16  C7          0      45.333  61.893  11.685  1.00  0.00     0.026 C 
HETATM   17  C8          0      44.595  61.212  10.724  1.00  0.00     0.112 C 
HETATM   18  C10         0      44.792  61.652   9.422  1.00  0.00     0.112 C 
HETATM   19  C12         0      45.188  62.969   9.223  1.00  0.00     0.028 C 
BRANCH  17  20
HETATM   20  O9          0      43.599  60.324  11.092  1.00  0.00    -0.357 OA
HETATM   21  H9          0      42.792  60.204  10.605  1.00  0.00     0.218 HD
ENDBRANCH  17  20
BRANCH  18  22
HETATM   22  O11         0      44.229  60.889   8.409  1.00  0.00    -0.357 OA
HETATM   23  H11         0      43.514  61.282   7.921  1.00  0.00     0.218 HD
ENDBRANCH  18  22
ENDBRANCH   4  14
BRANCH   8  24
HETATM   24  O17         0      48.770  69.666  10.567  1.00  0.00    -0.359 OA
HETATM   25  H17         0      48.935  70.276  11.275  1.00  0.00     0.218 HD
ENDBRANCH   8  24
TORSDOF 5
ENDMDL
MODEL 2
REMARK VINA RESULT:      -6.6      1.611      2.018
REMARK  5 active torsions:
REMARK  status: ('A' for Active; 'I' for Inactive)
REMARK    1  A    between atoms: C4_4  and  C5_5 
REMARK    2  A    between atoms: C8_8  and  O9_9 
REMARK    3  A    between atoms: C10_11  and  O11_12 
REMARK    4  A    between atoms: C16_18  and  O17_19 
REMARK    5  A    between atoms: C19_22  and  O20_23 
ROOT
HETATM    1  O1          0      44.852  66.644  15.176  1.00  0.00    -0.286 OA
HETATM    2  C2          0      44.682  66.420  13.946  1.00  0.00     0.201 C 
HETATM    3  C3          0      44.609  65.142  13.419  1.00  0.00     0.067 C 
HETATM    4  C4          0      44.524  64.923  12.049  1.00  0.00     0.103 C 
HETATM    5  O13         0      44.494  65.968  11.240  1.00  0.00    -0.307 OA
HETATM    6  C14         0      44.599  67.201  11.685  1.00  0.00     0.107 C 
HETATM    7  C15         0      44.967  68.249  10.855  1.00  0.00     0.049 C 
HETATM    8  C16         0      45.322  69.489  11.372  1.00  0.00     0.093 C 
HETATM    9  C18         0      44.795  69.775  12.625  1.00  0.00     0.048 C 
HETATM   10  C19         0      44.374  68.752  13.464  1.00  0.00     0.096 C 
HETATM   11  C21         0      44.463  67.452  13.046  1.00  0.00     0.084 C 
ENDROOT
BRANCH  10  12
HETATM   12  O20         0      44.267  68.992  14.830  1.00  0.00    -0.359 OA
HETATM   13  H20         0      44.951  69.503  15.247  1.00  0.00     0.218 HD
ENDBRANCH  10  12
BRANCH   4  14
HETATM   14  C5          0      45.044  63.653  11.540  1.00  0.00     0.025 C 
HETATM   15  C6          0      45.610  62.689  12.362  1.00  0.00     0.004 C 
HETATM   16  C7          0      45.343  61.355  12.071  1.00  0.00     0.026 C 
HETATM   17  C8          0      44.648  60.984  10.925  1.00  0.00     0.112 C 
HETATM   18  C10         0      44.689  61.915   9.895  1.00  0.00     0.112 C 
HETATM   19  C12         0      44.873  63.253  10.221  1.00  0.00     0.028 C 
BRANCH  17  20
HETATM   20  O9          0      43.821  59.875  10.925  1.00  0.00    -0.357 OA
HETATM   21  H9          0      43.198  59.681  11.616  1.00  0.00     0.218 HD
ENDBRANCH  17  20
BRANCH  18  22
HETATM   22  O11         0      44.176  61.518   8.668  1.00  0.00    -0.357 OA
HETATM   23  H11         0      43.275  61.756   8.482  1.00  0.00     0.218 HD
ENDBRANCH  18  22
ENDBRANCH   4  14
BRANCH   8  24
HETATM   24  O17         0      46.383  70.227  10.834  1.00  0.00    -0.359 OA
HETATM   25  H17         0      46.235  70.953  10.240  1.00  0.00     0.218 HD
ENDBRANCH   8  24
TORSDOF 5
ENDMDL
MODEL 3
REMARK VINA RESULT:      -6.5      1.802      6.885
REMARK  5 active torsions:
REMARK  status: ('A' for Active; 'I' for Inactive)
REMARK    1  A    between atoms: C4_4  and  C5_5 
REMARK    2  A    between atoms: C8_8  and  O9_9 
REMARK    3  A    between atoms: C10_11  and  O11_12 
REMARK    4  A    between atoms: C16_18  and  O17_19 
REMARK    5  A    between atoms: C19_22  and  O20_23 
ROOT
HETATM    1  O1          0      48.426  63.722  11.012  1.00  0.00    -0.286 OA
HETATM    2  C2          0      47.258  64.019  10.641  1.00  0.00     0.201 C 
HETATM    3  C3          0      46.790  65.322  10.605  1.00  0.00     0.067 C 
HETATM    4  C4          0      45.467  65.613  10.291  1.00  0.00     0.103 C 
HETATM    5  O13         0      44.650  64.616  10.000  1.00  0.00    -0.307 OA
HETATM    6  C14         0      45.033  63.359  10.055  1.00  0.00     0.107 C 
HETATM    7  C15         0      44.119  62.320  10.148  1.00  0.00     0.049 C 
HETATM    8  C16         0      44.524  61.028  10.460  1.00  0.00     0.093 C 
HETATM    9  C18         0      45.846  60.736  10.149  1.00  0.00     0.048 C 
HETATM   10  C19         0      46.778  61.755  10.002  1.00  0.00     0.096 C 
HETATM   11  C21         0      46.387  63.058  10.149  1.00  0.00     0.084 C 
ENDROOT
BRANCH  10  12
HETATM   12  O20         0      48.132  61.462  10.128  1.00  0.00    -0.359 OA
HETATM   13  H20         0      48.478  60.732   9.628  1.00  0.00     0.218 HD
ENDBRANCH  10  12
BRANCH   4  14
HETATM   14  C5          0      44.905  66.848  10.838  1.00  0.00     0.025 C 
HETATM   15  C6          0      44.141  66.879  11.996  1.00  0.00     0.004 C 
HETATM   16  C7          0      44.319  67.957  12.857  1.00  0.00     0.026 C 
HETATM   17  C8          0      45.128  69.036  12.517  1.00  0.00     0.112 C 
HETATM   18  C10         0      45.318  69.212  11.153  1.00  0.00     0.112 C 
HETATM   19  C12         0      45.218  68.100  10.324  1.00  0.00     0.028 C 
BRANCH  17  20
HETATM   20  O9          0      45.838  69.723  13.486  1.00  0.00    -0.357 OA
HETATM   21  H9          0      45.431  70.208  14.195  1.00  0.00     0.218 HD
ENDBRANCH  17  20
BRANCH  18  22
HETATM   22  O11         0      45.956  70.376  10.752  1.00  0.00    -0.357 OA
HETATM   23  H11         0      45.658  70.773   9.942  1.00  0.00     0.218 HD
ENDBRANCH  18  22
ENDBRANCH   4  14
BRANCH   8  24
HETATM   24  O17         0      43.773  60.215  11.318  1.00  0.00    -0.359 OA
HETATM   25  H17         0      43.013  59.736  11.012  1.00  0.00     0.218 HD
ENDBRANCH   8  24
TORSDOF 5
ENDMDL
MODEL 4
REMARK VINA RESULT:      -6.3      1.415      2.713
REMARK  5 active torsions:
REMARK  status: ('A' for Active; 'I' for Inactive)
REMARK    1  A    between atoms: C4_4  and  C5_5 
REMARK    2  A    between atoms: C8_8  and  O9_9 
REMARK    3  A    between atoms: C10_11  and  O11_12 
REMARK    4  A    between atoms: C16_18  and  O17_19 
REMARK    5  A    between atoms: C19_22  and  O20_23 
ROOT
HETATM    1  O1          0      46.319  67.731   8.992  1.00  0.00    -0.286 OA
HETATM    2  C2          0      46.288  66.986  10.009  1.00  0.00     0.201 C 
HETATM    3  C3          0      46.668  65.656   9.977  1.00  0.00     0.067 C 
HETATM    4  C4          0      46.526  64.830  11.087  1.00  0.00     0.103 C 
HETATM    5  O13         0      46.034  65.343  12.201  1.00  0.00    -0.307 OA
HETATM    6  C14         0      45.623  66.590  12.274  1.00  0.00     0.107 C 
HETATM    7  C15         0      44.760  67.018  13.272  1.00  0.00     0.049 C 
HETATM    8  C16         0      44.131  68.255  13.202  1.00  0.00     0.093 C 
HETATM    9  C18         0      44.787  69.204  12.427  1.00  0.00     0.048 C 
HETATM   10  C19         0      45.693  68.812  11.450  1.00  0.00     0.096 C 
HETATM   11  C21         0      45.955  67.483  11.260  1.00  0.00     0.084 C 
ENDROOT
BRANCH  10  12
HETATM   12  O20         0      46.002  69.692  10.417  1.00  0.00    -0.359 OA
HETATM   13  H20         0      45.627  70.564  10.447  1.00  0.00     0.218 HD
ENDBRANCH  10  12
BRANCH   4  14
HETATM   14  C5          0      46.363  63.397  10.839  1.00  0.00     0.025 C 
HETATM   15  C6          0      46.563  62.436  11.820  1.00  0.00     0.004 C 
HETATM   16  C7          0      45.703  61.343  11.837  1.00  0.00     0.026 C 
HETATM   17  C8          0      44.761  61.141  10.834  1.00  0.00     0.112 C 
HETATM   18  C10         0      45.058  61.760   9.627  1.00  0.00     0.112 C 
HETATM   19  C12         0      45.850  62.901   9.647  1.00  0.00     0.028 C 
BRANCH  17  20
HETATM   20  O9          0      43.543  60.548  11.114  1.00  0.00    -0.357 OA
HETATM   21  H9          0      43.257  59.724  10.736  1.00  0.00     0.218 HD
ENDBRANCH  17  20
BRANCH  18  22
HETATM   22  O11         0      44.255  61.438   8.542  1.00  0.00    -0.357 OA
HETATM   23  H11         0      43.424  61.018   8.731  1.00  0.00     0.218 HD
ENDBRANCH  18  22
ENDBRANCH   4  14
BRANCH   8  24
HETATM   24  O17         0      42.797  68.419  13.591  1.00  0.00    -0.359 OA
HETATM   25  H17         0      42.494  68.164  14.455  1.00  0.00     0.218 HD
ENDBRANCH   8  24
TORSDOF 5
ENDMDL
MODEL 5
REMARK VINA RESULT:      -6.3      4.457      6.597
REMARK  5 active torsions:
REMARK  status: ('A' for Active; 'I' for Inactive)
REMARK    1  A    between atoms: C4_4  and  C5_5 
REMARK    2  A    between atoms: C8_8  and  O9_9 
REMARK    3  A    between atoms: C10_11  and  O11_12 
REMARK    4  A    between atoms: C16_18  and  O17_19 
REMARK    5  A    between atoms: C19_22  and  O20_23 
ROOT
HETATM    1  O1          0      44.878  66.330  11.569  1.00  0.00    -0.286 OA
HETATM    2  C2          0      45.110  65.348  12.326  1.00  0.00     0.201 C 
HETATM    3  C3          0      45.004  65.421  13.704  1.00  0.00     0.067 C 
HETATM    4  C4          0      45.364  64.355  14.520  1.00  0.00     0.103 C 
HETATM    5  O13         0      45.797  63.242  13.956  1.00  0.00    -0.307 OA
HETATM    6  C14         0      45.952  63.132  12.655  1.00  0.00     0.107 C 
HETATM    7  C15         0      46.761  62.154  12.095  1.00  0.00     0.049 C 
HETATM    8  C16         0      47.123  62.197  10.754  1.00  0.00     0.093 C 
HETATM    9  C18         0      46.251  62.902   9.933  1.00  0.00     0.048 C 
HETATM   10  C19         0      45.395  63.856  10.467  1.00  0.00     0.096 C 
HETATM   11  C21         0      45.398  64.092  11.815  1.00  0.00     0.084 C 
ENDROOT
BRANCH  10  12
HETATM   12  O20         0      44.864  64.836   9.634  1.00  0.00    -0.359 OA
HETATM   13  H20         0      45.457  65.292   9.049  1.00  0.00     0.218 HD
ENDBRANCH  10  12
BRANCH   4  14
HETATM   14  C5          0      45.800  64.671  15.882  1.00  0.00     0.025 C 
HETATM   15  C6          0      45.771  65.957  16.401  1.00  0.00     0.004 C 
HETATM   16  C7          0      45.405  66.106  17.735  1.00  0.00     0.026 C 
HETATM   17  C8          0      45.206  65.007  18.563  1.00  0.00     0.112 C 
HETATM   18  C10         0      45.855  63.849  18.157  1.00  0.00     0.112 C 
HETATM   19  C12         0      46.132  63.687  16.804  1.00  0.00     0.028 C 
BRANCH  17  20
HETATM   20  O9          0      44.263  65.044  19.576  1.00  0.00    -0.357 OA
HETATM   21  H9          0      44.068  65.821  20.087  1.00  0.00     0.218 HD
ENDBRANCH  17  20
BRANCH  18  22
HETATM   22  O11         0      45.845  62.779  19.041  1.00  0.00    -0.357 OA
HETATM   23  H11         0      44.995  62.427  19.280  1.00  0.00     0.218 HD
ENDBRANCH  18  22
ENDBRANCH   4  14
BRANCH   8  24
HETATM   24  O17         0      48.415  61.857  10.336  1.00  0.00    -0.359 OA
HETATM   25  H17         0      49.162  62.415  10.521  1.00  0.00     0.218 HD
ENDBRANCH   8  24
TORSDOF 5
ENDMDL
MODEL 6
REMARK VINA RESULT:      -6.1      2.552      6.135
REMARK  5 active torsions:
REMARK  status: ('A' for Active; 'I' for Inactive)
REMARK    1  A    between atoms: C4_4  and  C5_5 
REMARK    2  A    between atoms: C8_8  and  O9_9 
REMARK    3  A    between atoms: C10_11  and  O11_12 
REMARK    4  A    between atoms: C16_18  and  O17_19 
REMARK    5  A    between atoms: C19_22  and  O20_23 
ROOT
HETATM    1  O1          0      43.461  66.225  11.195  1.00  0.00    -0.286 OA
HETATM    2  C2          0      44.720  66.301  11.208  1.00  0.00     0.201 C 
HETATM    3  C3          0      45.419  67.298  10.549  1.00  0.00     0.067 C 
HETATM    4  C4          0      46.808  67.299  10.494  1.00  0.00     0.103 C 
HETATM    5  O13         0      47.469  66.333  11.106  1.00  0.00    -0.307 OA
HETATM    6  C14         0      46.854  65.343  11.715  1.00  0.00     0.107 C 
HETATM    7  C15         0      47.498  64.148  12.002  1.00  0.00     0.049 C 
HETATM    8  C16         0      46.788  63.024  12.408  1.00  0.00     0.093 C 
HETATM    9  C18         0      45.562  63.289  13.006  1.00  0.00     0.048 C 
HETATM   10  C19         0      44.911  64.494  12.777  1.00  0.00     0.096 C 
HETATM   11  C21         0      45.490  65.436  11.971  1.00  0.00     0.084 C 
ENDROOT
BRANCH  10  12
HETATM   12  O20         0      43.541  64.580  13.002  1.00  0.00    -0.359 OA
HETATM   13  H20         0      43.069  65.301  12.603  1.00  0.00     0.218 HD
ENDBRANCH  10  12
BRANCH   4  14
HETATM   14  C5          0      47.432  67.963   9.347  1.00  0.00     0.025 C 
HETATM   15  C6          0      48.377  67.343   8.542  1.00  0.00     0.004 C 
HETATM   16  C7          0      48.326  67.598   7.176  1.00  0.00     0.026 C 
HETATM   17  C8          0      47.453  68.540   6.641  1.00  0.00     0.112 C 
HETATM   18  C10         0      47.036  69.517   7.535  1.00  0.00     0.112 C 
HETATM   19  C12         0      47.016  69.207   8.890  1.00  0.00     0.028 C 
BRANCH  17  20
HETATM   20  O9          0      46.902  68.363   5.384  1.00  0.00    -0.357 OA
HETATM   21  H9          0      46.410  69.033   4.925  1.00  0.00     0.218 HD
ENDBRANCH  17  20
BRANCH  18  22
HETATM   22  O11         0      46.320  70.583   7.012  1.00  0.00    -0.357 OA
HETATM   23  H11         0      45.575  70.890   7.516  1.00  0.00     0.218 HD
ENDBRANCH  18  22
ENDBRANCH   4  14
BRANCH   8  24
HETATM   24  O17         0      47.122  61.746  11.948  1.00  0.00    -0.359 OA
HETATM   25  H17         0      46.828  61.427  11.103  1.00  0.00     0.218 HD
ENDBRANCH   8  24
TORSDOF 5
ENDMDL
MODEL 7
REMARK VINA RESULT:      -6.0      3.351      4.448
REMARK  5 active torsions:
REMARK  status: ('A' for Active; 'I' for Inactive)
REMARK    1  A    between atoms: C4_4  and  C5_5 
REMARK    2  A    between atoms: C8_8  and  O9_9 
REMARK    3  A    between atoms: C10_11  and  O11_12 
REMARK    4  A    between atoms: C16_18  and  O17_19 
REMARK    5  A    between atoms: C19_22  and  O20_23 
ROOT
HETATM    1  O1          0      44.216  67.814  13.390  1.00  0.00    -0.286 OA
HETATM    2  C2          0      45.035  66.857  13.469  1.00  0.00     0.201 C 
HETATM    3  C3          0      45.424  66.110  12.370  1.00  0.00     0.067 C 
HETATM    4  C4          0      46.248  64.998  12.501  1.00  0.00     0.103 C 
HETATM    5  O13         0      46.680  64.666  13.704  1.00  0.00    -0.307 OA
HETATM    6  C14         0      46.310  65.318  14.785  1.00  0.00     0.107 C 
HETATM    7  C15         0      46.421  64.760  16.050  1.00  0.00     0.049 C 
HETATM    8  C16         0      45.802  65.339  17.151  1.00  0.00     0.093 C 
HETATM    9  C18         0      45.552  66.701  17.035  1.00  0.00     0.048 C 
HETATM   10  C19         0      45.482  67.301  15.785  1.00  0.00     0.096 C 
HETATM   11  C21         0      45.676  66.549  14.659  1.00  0.00     0.084 C 
ENDROOT
BRANCH  10  12
HETATM   12  O20         0      44.820  68.518  15.652  1.00  0.00    -0.359 OA
HETATM   13  H20         0      43.872  68.505  15.598  1.00  0.00     0.218 HD
ENDBRANCH  10  12
BRANCH   4  14
HETATM   14  C5          0      46.129  63.953  11.481  1.00  0.00     0.025 C 
HETATM   15  C6          0      47.230  63.347  10.895  1.00  0.00     0.004 C 
HETATM   16  C7          0      47.149  61.983  10.630  1.00  0.00     0.026 C 
HETATM   17  C8          0      45.968  61.273  10.815  1.00  0.00     0.112 C 
HETATM   18  C10         0      44.815  62.045  10.783  1.00  0.00     0.112 C 
HETATM   19  C12         0      44.909  63.387  11.135  1.00  0.00     0.028 C 
BRANCH  17  20
HETATM   20  O9          0      45.994  59.947  11.210  1.00  0.00    -0.357 OA
HETATM   21  H9          0      46.301  59.655  12.060  1.00  0.00     0.218 HD
ENDBRANCH  17  20
BRANCH  18  22
HETATM   22  O11         0      43.605  61.368  10.773  1.00  0.00    -0.357 OA
HETATM   23  H11         0      43.128  61.350   9.951  1.00  0.00     0.218 HD
ENDBRANCH  18  22
ENDBRANCH   4  14
BRANCH   8  24
HETATM   24  O17         0      45.182  64.558  18.133  1.00  0.00    -0.359 OA
HETATM   25  H17         0      44.410  64.860  18.597  1.00  0.00     0.218 HD
ENDBRANCH   8  24
TORSDOF 5
ENDMDL
MODEL 8
REMARK VINA RESULT:      -5.9      2.413      6.948
REMARK  5 active torsions:
REMARK  status: ('A' for Active; 'I' for Inactive)
REMARK    1  A    between atoms: C4_4  and  C5_5 
REMARK    2  A    between atoms: C8_8  and  O9_9 
REMARK    3  A    between atoms: C10_11  and  O11_12 
REMARK    4  A    between atoms: C16_18  and  O17_19 
REMARK    5  A    between atoms: C19_22  and  O20_23 
ROOT
HETATM    1  O1          0      48.670  64.772  11.420  1.00  0.00    -0.286 OA
HETATM    2  C2          0      47.801  65.366  10.724  1.00  0.00     0.201 C 
HETATM    3  C3          0      48.107  66.417   9.877  1.00  0.00     0.067 C 
HETATM    4  C4          0      47.117  67.119   9.200  1.00  0.00     0.103 C 
HETATM    5  O13         0      45.857  66.754   9.360  1.00  0.00    -0.307 OA
HETATM    6  C14         0      45.508  65.788  10.181  1.00  0.00     0.107 C 
HETATM    7  C15         0      44.210  65.665  10.655  1.00  0.00     0.049 C 
HETATM    8  C16         0      43.905  64.811  11.708  1.00  0.00     0.093 C 
HETATM    9  C18         0      44.789  63.753  11.881  1.00  0.00     0.048 C 
HETATM   10  C19         0      46.081  63.823  11.378  1.00  0.00     0.096 C 
HETATM   11  C21         0      46.482  64.937  10.692  1.00  0.00     0.084 C 
ENDROOT
BRANCH  10  12
HETATM   12  O20         0      47.064  62.995  11.910  1.00  0.00    -0.359 OA
HETATM   13  H20         0      46.938  62.662  12.790  1.00  0.00     0.218 HD
ENDBRANCH  10  12
BRANCH   4  14
HETATM   14  C5          0      47.408  68.508   8.840  1.00  0.00     0.025 C 
HETATM   15  C6          0      47.665  68.910   7.538  1.00  0.00     0.004 C 
HETATM   16  C7          0      47.154  70.138   7.129  1.00  0.00     0.026 C 
HETATM   17  C8          0      46.525  71.000   8.022  1.00  0.00     0.112 C 
HETATM   18  C10         0      46.874  70.812   9.352  1.00  0.00     0.112 C 
HETATM   19  C12         0      47.301  69.551   9.752  1.00  0.00     0.028 C 
BRANCH  17  20
HETATM   20  O9          0      45.487  71.815   7.607  1.00  0.00    -0.357 OA
HETATM   21  H9          0      44.718  72.000   8.134  1.00  0.00     0.218 HD
ENDBRANCH  17  20
BRANCH  18  22
HETATM   22  O11         0      46.424  71.761  10.260  1.00  0.00    -0.357 OA
HETATM   23  H11         0      47.086  72.221  10.764  1.00  0.00     0.218 HD
ENDBRANCH  18  22
ENDBRANCH   4  14
BRANCH   8  24
HETATM   24  O17         0      42.993  65.178  12.704  1.00  0.00    -0.359 OA
HETATM   25  H17         0      42.904  64.680  13.508  1.00  0.00     0.218 HD
ENDBRANCH   8  24
TORSDOF 5
ENDMDL
MODEL 9
REMARK VINA RESULT:      -5.9      1.675      2.216
REMARK  5 active torsions:
REMARK  status: ('A' for Active; 'I' for Inactive)
REMARK    1  A    between atoms: C4_4  and  C5_5 
REMARK    2  A    between atoms: C8_8  and  O9_9 
REMARK    3  A    between atoms: C10_11  and  O11_12 
REMARK    4  A    between atoms: C16_18  and  O17_19 
REMARK    5  A    between atoms: C19_22  and  O20_23 
ROOT
HETATM    1  O1          0      44.774  68.889  11.915  1.00  0.00    -0.286 OA
HETATM    2  C2          0      45.101  68.057  11.025  1.00  0.00     0.201 C 
HETATM    3  C3          0      44.582  66.774  10.971  1.00  0.00     0.067 C 
HETATM    4  C4          0      45.035  65.844  10.042  1.00  0.00     0.103 C 
HETATM    5  O13         0      45.968  66.209   9.181  1.00  0.00    -0.307 OA
HETATM    6  C14         0      46.520  67.402   9.213  1.00  0.00     0.107 C 
HETATM    7  C15         0      47.741  67.659   8.605  1.00  0.00     0.049 C 
HETATM    8  C16         0      48.437  68.836   8.854  1.00  0.00     0.093 C 
HETATM    9  C18         0      47.653  69.905   9.270  1.00  0.00     0.048 C 
HETATM   10  C19         0      46.406  69.686   9.839  1.00  0.00     0.096 C 
HETATM   11  C21         0      45.938  68.407   9.977  1.00  0.00     0.084 C 
ENDROOT
BRANCH  10  12
HETATM   12  O20         0      45.835  70.678  10.630  1.00  0.00    -0.359 OA
HETATM   13  H20         0      45.373  70.411  11.415  1.00  0.00     0.218 HD
ENDBRANCH  10  12
BRANCH   4  14
HETATM   14  C5          0      44.922  64.429  10.402  1.00  0.00     0.025 C 
HETATM   15  C6          0      45.190  63.402   9.508  1.00  0.00     0.004 C 
HETATM   16  C7          0      45.835  62.272   9.999  1.00  0.00     0.026 C 
HETATM   17  C8          0      46.086  62.107  11.357  1.00  0.00     0.112 C 
HETATM   18  C10         0      45.251  62.836  12.193  1.00  0.00     0.112 C 
HETATM   19  C12         0      44.687  64.008  11.704  1.00  0.00     0.028 C 
BRANCH  17  20
HETATM   20  O9          0      47.214  61.436  11.793  1.00  0.00    -0.357 OA
HETATM   21  H9          0      47.943  61.207  11.228  1.00  0.00     0.218 HD
ENDBRANCH  17  20
BRANCH  18  22
HETATM   22  O11         0      45.331  62.566  13.552  1.00  0.00    -0.357 OA
HETATM   23  H11         0      45.666  63.260  14.109  1.00  0.00     0.218 HD
ENDBRANCH  18  22
ENDBRANCH   4  14
BRANCH   8  24
HETATM   24  O17         0      49.829  68.842   9.002  1.00  0.00    -0.359 OA
HETATM   25  H17         0      50.369  68.135   8.670  1.00  0.00     0.218 HD
ENDBRANCH   8  24
TORSDOF 5
ENDMDL
