MODEL 1
REMARK VINA RESULT:      -1.0      0.000      0.000
REMARK  5 active torsions:
REMARK  status: ('A' for Active; 'I' for Inactive)
REMARK    1  A    between atoms: C4_4  and  C5_5 
REMARK    2  A    between atoms: C8_8  and  O9_9 
REMARK    3  A    between atoms: C10_11  and  O11_12 
REMARK    4  A    between atoms: C16_18  and  O17_19 
REMARK    5  A    between atoms: C19_22  and  O20_23 
ROOT
HETATM    1  O1          0      20.903  18.282  -4.621  1.00  0.00    -0.286 OA
HETATM    2  C2          0      21.140  18.908  -3.552  1.00  0.00     0.201 C 
HETATM    3  C3          0      22.413  19.036  -3.024  1.00  0.00     0.067 C 
HETATM    4  C4          0      22.634  19.643  -1.793  1.00  0.00     0.103 C 
HETATM    5  O13         0      21.598  20.124  -1.128  1.00  0.00    -0.307 OA
HETATM    6  C14         0      20.365  19.995  -1.566  1.00  0.00     0.107 C 
HETATM    7  C15         0      19.272  20.125  -0.722  1.00  0.00     0.049 C 
HETATM    8  C16         0      17.998  19.741  -1.125  1.00  0.00     0.093 C 
HETATM    9  C18         0      17.793  19.744  -2.500  1.00  0.00     0.048 C 
HETATM   10  C19         0      18.868  19.663  -3.374  1.00  0.00     0.096 C 
HETATM   11  C21         0      20.142  19.596  -2.879  1.00  0.00     0.084 C 
ENDROOT
BRANCH  10  12
HETATM   12  O20         0      18.652  19.233  -4.680  1.00  0.00    -0.359 OA
HETATM   13  H20         0      19.336  19.389  -5.319  1.00  0.00     0.218 HD
ENDBRANCH  10  12
BRANCH   4  14
HETATM   14  C5          0      23.820  19.226  -1.044  1.00  0.00     0.025 C 
HETATM   15  C6          0      23.768  18.322   0.007  1.00  0.00     0.004 C 
HETATM   16  C7          0      24.809  17.406   0.122  1.00  0.00     0.026 C 
HETATM   17  C8          0      25.932  17.472  -0.696  1.00  0.00     0.112 C 
HETATM   18  C10         0      26.179  18.724  -1.241  1.00  0.00     0.112 C 
HETATM   19  C12         0      25.106  19.589  -1.424  1.00  0.00     0.028 C 
BRANCH  17  20
HETATM   20  O9          0      26.596  16.321  -1.081  1.00  0.00    -0.357 OA
HETATM   21  H9          0      27.528  16.182  -0.956  1.00  0.00     0.218 HD
ENDBRANCH  17  20
BRANCH  18  22
HETATM   22  O11         0      27.384  18.892  -1.908  1.00  0.00    -0.357 OA
HETATM   23  H11         0      28.167  18.585  -1.466  1.00  0.00     0.218 HD
ENDBRANCH  18  22
ENDBRANCH   4  14
BRANCH   8  24
HETATM   24  O17         0      17.122  19.087  -0.251  1.00  0.00    -0.359 OA
HETATM   25  H17         0      16.650  19.557   0.426  1.00  0.00     0.218 HD
ENDBRANCH   8  24
TORSDOF 5
ENDMDL
MODEL 2
REMARK VINA RESULT:      -0.7      1.951      6.836
REMARK  5 active torsions:
REMARK  status: ('A' for Active; 'I' for Inactive)
REMARK    1  A    between atoms: C4_4  and  C5_5 
REMARK    2  A    between atoms: C8_8  and  O9_9 
REMARK    3  A    between atoms: C10_11  and  O11_12 
REMARK    4  A    between atoms: C16_18  and  O17_19 
REMARK    5  A    between atoms: C19_22  and  O20_23 
ROOT
HETATM    1  O1          0      26.320  17.339  -0.504  1.00  0.00    -0.286 OA
HETATM    2  C2          0      25.509  18.141  -1.042  1.00  0.00     0.201 C 
HETATM    3  C3          0      24.179  18.229  -0.668  1.00  0.00     0.067 C 
HETATM    4  C4          0      23.284  19.048  -1.347  1.00  0.00     0.103 C 
HETATM    5  O13         0      23.728  19.772  -2.360  1.00  0.00    -0.307 OA
HETATM    6  C14         0      24.972  19.698  -2.779  1.00  0.00     0.107 C 
HETATM    7  C15         0      25.342  20.124  -4.047  1.00  0.00     0.049 C 
HETATM    8  C16         0      26.589  19.814  -4.577  1.00  0.00     0.093 C 
HETATM    9  C18         0      27.579  19.556  -3.636  1.00  0.00     0.048 C 
HETATM   10  C19         0      27.243  19.172  -2.345  1.00  0.00     0.096 C 
HETATM   11  C21         0      25.926  19.064  -1.990  1.00  0.00     0.084 C 
ENDROOT
BRANCH  10  12
HETATM   12  O20         0      28.185  18.510  -1.565  1.00  0.00    -0.359 OA
HETATM   13  H20         0      28.001  17.614  -1.309  1.00  0.00     0.218 HD
ENDBRANCH  10  12
BRANCH   4  14
HETATM   14  C5          0      21.872  18.662  -1.322  1.00  0.00     0.025 C 
HETATM   15  C6          0      21.012  19.021  -0.294  1.00  0.00     0.004 C 
HETATM   16  C7          0      19.707  19.361  -0.635  1.00  0.00     0.026 C 
HETATM   17  C8          0      19.232  19.220  -1.934  1.00  0.00     0.112 C 
HETATM   18  C10         0      19.922  18.295  -2.707  1.00  0.00     0.112 C 
HETATM   19  C12         0      21.252  18.038  -2.397  1.00  0.00     0.028 C 
BRANCH  17  20
HETATM   20  O9          0      18.290  20.096  -2.443  1.00  0.00    -0.357 OA
HETATM   21  H9          0      18.169  20.260  -3.371  1.00  0.00     0.218 HD
ENDBRANCH  17  20
BRANCH  18  22
HETATM   22  O11         0      19.377  17.978  -3.943  1.00  0.00    -0.357 OA
HETATM   23  H11         0      18.432  17.890  -3.986  1.00  0.00     0.218 HD
ENDBRANCH  18  22
ENDBRANCH   4  14
BRANCH   8  24
HETATM   24  O17         0      26.742  19.460  -5.922  1.00  0.00    -0.359 OA
HETATM   25  H17         0      26.646  20.097  -6.620  1.00  0.00     0.218 HD
ENDBRANCH   8  24
TORSDOF 5
ENDMDL
MODEL 3
REMARK VINA RESULT:      -0.7      2.775      6.522
REMARK  5 active torsions:
REMARK  status: ('A' for Active; 'I' for Inactive)
REMARK    1  A    between atoms: C4_4  and  C5_5 
REMARK    2  A    between atoms: C8_8  and  O9_9 
REMARK    3  A    between atoms: C10_11  and  O11_12 
REMARK    4  A    between atoms: C16_18  and  O17_19 
REMARK    5  A    between atoms: C19_22  and  O20_23 
ROOT
HETATM    1  O1          0      21.225  15.005  -3.395  1.00  0.00    -0.286 OA
HETATM    2  C2          0      21.424  16.001  -2.647  1.00  0.00     0.201 C 
HETATM    3  C3          0      20.570  16.347  -1.615  1.00  0.00     0.067 C 
HETATM    4  C4          0      20.757  17.507  -0.872  1.00  0.00     0.103 C 
HETATM    5  O13         0      21.790  18.281  -1.153  1.00  0.00    -0.307 OA
HETATM    6  C14         0      22.611  18.018  -2.147  1.00  0.00     0.107 C 
HETATM    7  C15         0      23.430  18.994  -2.696  1.00  0.00     0.049 C 
HETATM    8  C16         0      24.099  18.783  -3.896  1.00  0.00     0.093 C 
HETATM    9  C18         0      24.334  17.450  -4.210  1.00  0.00     0.048 C 
HETATM   10  C19         0      23.564  16.445  -3.642  1.00  0.00     0.096 C 
HETATM   11  C21         0      22.575  16.767  -2.753  1.00  0.00     0.084 C 
ENDROOT
BRANCH  10  12
HETATM   12  O20         0      23.501  15.202  -4.265  1.00  0.00    -0.359 OA
HETATM   13  H20         0      22.667  14.749  -4.271  1.00  0.00     0.218 HD
ENDBRANCH  10  12
BRANCH   4  14
HETATM   14  C5          0      19.571  18.110  -0.261  1.00  0.00     0.025 C 
HETATM   15  C6          0      19.518  19.442   0.125  1.00  0.00     0.004 C 
HETATM   16  C7          0      18.324  20.125  -0.079  1.00  0.00     0.026 C 
HETATM   17  C8          0      17.178  19.475  -0.526  1.00  0.00     0.112 C 
HETATM   18  C10         0      17.151  18.109  -0.274  1.00  0.00     0.112 C 
HETATM   19  C12         0      18.361  17.435  -0.159  1.00  0.00     0.028 C 
BRANCH  17  20
HETATM   20  O9          0      16.265  20.124  -1.337  1.00  0.00    -0.357 OA
HETATM   21  H9          0      16.410  20.986  -1.712  1.00  0.00     0.218 HD
ENDBRANCH  17  20
BRANCH  18  22
HETATM   22  O11         0      15.959  17.447  -0.527  1.00  0.00    -0.357 OA
HETATM   23  H11         0      15.323  17.421   0.179  1.00  0.00     0.218 HD
ENDBRANCH  18  22
ENDBRANCH   4  14
BRANCH   8  24
HETATM   24  O17         0      24.215  19.797  -4.854  1.00  0.00    -0.359 OA
HETATM   25  H17         0      23.542  20.457  -4.966  1.00  0.00     0.218 HD
ENDBRANCH   8  24
TORSDOF 5
ENDMDL
MODEL 4
REMARK VINA RESULT:      -0.7      1.591      1.949
REMARK  5 active torsions:
REMARK  status: ('A' for Active; 'I' for Inactive)
REMARK    1  A    between atoms: C4_4  and  C5_5 
REMARK    2  A    between atoms: C8_8  and  O9_9 
REMARK    3  A    between atoms: C10_11  and  O11_12 
REMARK    4  A    between atoms: C16_18  and  O17_19 
REMARK    5  A    between atoms: C19_22  and  O20_23 
ROOT
HETATM    1  O1          0      20.583  17.395  -4.860  1.00  0.00    -0.286 OA
HETATM    2  C2          0      21.319  18.039  -4.062  1.00  0.00     0.201 C 
HETATM    3  C3          0      22.681  17.819  -3.954  1.00  0.00     0.067 C 
HETATM    4  C4          0      23.450  18.470  -2.996  1.00  0.00     0.103 C 
HETATM    5  O13         0      22.861  19.332  -2.187  1.00  0.00    -0.307 OA
HETATM    6  C14         0      21.564  19.550  -2.223  1.00  0.00     0.107 C 
HETATM    7  C15         0      20.890  20.123  -1.154  1.00  0.00     0.049 C 
HETATM    8  C16         0      19.502  20.118  -1.091  1.00  0.00     0.093 C 
HETATM    9  C18         0      18.859  20.019  -2.318  1.00  0.00     0.048 C 
HETATM   10  C19         0      19.519  19.494  -3.421  1.00  0.00     0.096 C 
HETATM   11  C21         0      20.820  19.086  -3.302  1.00  0.00     0.084 C 
ENDROOT
BRANCH  10  12
HETATM   12  O20         0      18.776  18.999  -4.488  1.00  0.00    -0.359 OA
HETATM   13  H20         0      18.485  19.614  -5.151  1.00  0.00     0.218 HD
ENDBRANCH  10  12
BRANCH   4  14
HETATM   14  C5          0      24.665  17.792  -2.539  1.00  0.00     0.025 C 
HETATM   15  C6          0      24.975  16.486  -2.891  1.00  0.00     0.004 C 
HETATM   16  C7          0      26.309  16.188  -3.150  1.00  0.00     0.026 C 
HETATM   17  C8          0      27.319  17.120  -2.937  1.00  0.00     0.112 C 
HETATM   18  C10         0      27.006  18.115  -2.021  1.00  0.00     0.112 C 
HETATM   19  C12         0      25.670  18.452  -1.844  1.00  0.00     0.028 C 
BRANCH  17  20
HETATM   20  O9          0      28.443  17.144  -3.744  1.00  0.00    -0.357 OA
HETATM   21  H9          0      28.515  16.667  -4.563  1.00  0.00     0.218 HD
ENDBRANCH  17  20
BRANCH  18  22
HETATM   22  O11         0      28.038  18.957  -1.631  1.00  0.00    -0.357 OA
HETATM   23  H11         0      28.048  19.829  -2.008  1.00  0.00     0.218 HD
ENDBRANCH  18  22
ENDBRANCH   4  14
BRANCH   8  24
HETATM   24  O17         0      18.828  19.889   0.114  1.00  0.00    -0.359 OA
HETATM   25  H17         0      19.261  19.493   0.861  1.00  0.00     0.218 HD
ENDBRANCH   8  24
TORSDOF 5
ENDMDL
MODEL 5
REMARK VINA RESULT:      -0.7      3.341      5.619
REMARK  5 active torsions:
REMARK  status: ('A' for Active; 'I' for Inactive)
REMARK    1  A    between atoms: C4_4  and  C5_5 
REMARK    2  A    between atoms: C8_8  and  O9_9 
REMARK    3  A    between atoms: C10_11  and  O11_12 
REMARK    4  A    between atoms: C16_18  and  O17_19 
REMARK    5  A    between atoms: C19_22  and  O20_23 
ROOT
HETATM    1  O1          0      21.656  15.688  -2.938  1.00  0.00    -0.286 OA
HETATM    2  C2          0      21.599  16.906  -3.262  1.00  0.00     0.201 C 
HETATM    3  C3          0      21.484  17.327  -4.576  1.00  0.00     0.067 C 
HETATM    4  C4          0      21.527  18.675  -4.915  1.00  0.00     0.103 C 
HETATM    5  O13         0      21.661  19.568  -3.951  1.00  0.00    -0.307 OA
HETATM    6  C14         0      21.812  19.220  -2.692  1.00  0.00     0.107 C 
HETATM    7  C15         0      22.343  20.091  -1.751  1.00  0.00     0.049 C 
HETATM    8  C16         0      22.736  19.645  -0.495  1.00  0.00     0.093 C 
HETATM    9  C18         0      22.104  18.487  -0.060  1.00  0.00     0.048 C 
HETATM   10  C19         0      21.521  17.616  -0.971  1.00  0.00     0.096 C 
HETATM   11  C21         0      21.554  17.909  -2.307  1.00  0.00     0.084 C 
ENDROOT
BRANCH  10  12
HETATM   12  O20         0      21.291  16.295  -0.598  1.00  0.00    -0.359 OA
HETATM   13  H20         0      21.227  16.099   0.329  1.00  0.00     0.218 HD
ENDBRANCH  10  12
BRANCH   4  14
HETATM   14  C5          0      21.999  19.012  -6.259  1.00  0.00     0.025 C 
HETATM   15  C6          0      22.786  20.124  -6.523  1.00  0.00     0.004 C 
HETATM   16  C7          0      23.797  19.989  -7.469  1.00  0.00     0.026 C 
HETATM   17  C8          0      23.937  18.831  -8.227  1.00  0.00     0.112 C 
HETATM   18  C10         0      22.778  18.075  -8.349  1.00  0.00     0.112 C 
HETATM   19  C12         0      21.821  18.165  -7.345  1.00  0.00     0.028 C 
BRANCH  17  20
HETATM   20  O9          0      25.186  18.392  -8.627  1.00  0.00    -0.357 OA
HETATM   21  H9          0      25.891  18.973  -8.888  1.00  0.00     0.218 HD
ENDBRANCH  17  20
BRANCH  18  22
HETATM   22  O11         0      22.812  17.015  -9.245  1.00  0.00    -0.357 OA
HETATM   23  H11         0      22.780  17.232 -10.169  1.00  0.00     0.218 HD
ENDBRANCH  18  22
ENDBRANCH   4  14
BRANCH   8  24
HETATM   24  O17         0      23.900  20.123   0.117  1.00  0.00    -0.359 OA
HETATM   25  H17         0      23.999  21.037   0.356  1.00  0.00     0.218 HD
ENDBRANCH   8  24
TORSDOF 5
ENDMDL
MODEL 6
REMARK VINA RESULT:      -0.7      2.954      4.140
REMARK  5 active torsions:
REMARK  status: ('A' for Active; 'I' for Inactive)
REMARK    1  A    between atoms: C4_4  and  C5_5 
REMARK    2  A    between atoms: C8_8  and  O9_9 
REMARK    3  A    between atoms: C10_11  and  O11_12 
REMARK    4  A    between atoms: C16_18  and  O17_19 
REMARK    5  A    between atoms: C19_22  and  O20_23 
ROOT
HETATM    1  O1          0      17.137  19.989  -2.797  1.00  0.00    -0.286 OA
HETATM    2  C2          0      17.507  19.124  -1.956  1.00  0.00     0.201 C 
HETATM    3  C3          0      18.770  19.122  -1.387  1.00  0.00     0.067 C 
HETATM    4  C4          0      19.187  18.100  -0.542  1.00  0.00     0.103 C 
HETATM    5  O13         0      18.343  17.121  -0.266  1.00  0.00    -0.307 OA
HETATM    6  C14         0      17.147  17.055  -0.808  1.00  0.00     0.107 C 
HETATM    7  C15         0      16.427  15.869  -0.849  1.00  0.00     0.049 C 
HETATM    8  C16         0      15.291  15.742  -1.638  1.00  0.00     0.093 C 
HETATM    9  C18         0      14.640  16.935  -1.928  1.00  0.00     0.048 C 
HETATM   10  C19         0      15.318  18.145  -1.852  1.00  0.00     0.096 C 
HETATM   11  C21         0      16.632  18.163  -1.472  1.00  0.00     0.084 C 
ENDROOT
BRANCH  10  12
HETATM   12  O20         0      14.822  19.247  -2.541  1.00  0.00    -0.359 OA
HETATM   13  H20         0      14.896  20.099  -2.129  1.00  0.00     0.218 HD
ENDBRANCH  10  12
BRANCH   4  14
HETATM   14  C5          0      20.624  17.831  -0.475  1.00  0.00     0.025 C 
HETATM   15  C6          0      21.222  16.764  -1.129  1.00  0.00     0.004 C 
HETATM   16  C7          0      22.473  16.976  -1.699  1.00  0.00     0.026 C 
HETATM   17  C8          0      23.168  18.166  -1.510  1.00  0.00     0.112 C 
HETATM   18  C10         0      22.804  18.876  -0.374  1.00  0.00     0.112 C 
HETATM   19  C12         0      21.518  18.709   0.125  1.00  0.00     0.028 C 
BRANCH  17  20
HETATM   20  O9          0      23.991  18.671  -2.502  1.00  0.00    -0.357 OA
HETATM   21  H9          0      24.407  18.134  -3.167  1.00  0.00     0.218 HD
ENDBRANCH  17  20
BRANCH  18  22
HETATM   22  O11         0      23.591  19.968  -0.037  1.00  0.00    -0.357 OA
HETATM   23  H11         0      23.249  20.828  -0.253  1.00  0.00     0.218 HD
ENDBRANCH  18  22
ENDBRANCH   4  14
BRANCH   8  24
HETATM   24  O17         0      15.027  14.568  -2.353  1.00  0.00    -0.359 OA
HETATM   25  H17         0      14.855  14.580  -3.287  1.00  0.00     0.218 HD
ENDBRANCH   8  24
TORSDOF 5
ENDMDL
MODEL 7
REMARK VINA RESULT:      -0.7      2.479      7.175
REMARK  5 active torsions:
REMARK  status: ('A' for Active; 'I' for Inactive)
REMARK    1  A    between atoms: C4_4  and  C5_5 
REMARK    2  A    between atoms: C8_8  and  O9_9 
REMARK    3  A    between atoms: C10_11  and  O11_12 
REMARK    4  A    between atoms: C16_18  and  O17_19 
REMARK    5  A    between atoms: C19_22  and  O20_23 
ROOT
HETATM    1  O1          0      20.532  19.100  -0.763  1.00  0.00    -0.286 OA
HETATM    2  C2          0      20.525  19.476  -1.968  1.00  0.00     0.201 C 
HETATM    3  C3          0      19.372  19.518  -2.733  1.00  0.00     0.067 C 
HETATM    4  C4          0      19.407  19.837  -4.086  1.00  0.00     0.103 C 
HETATM    5  O13         0      20.572  20.125  -4.640  1.00  0.00    -0.307 OA
HETATM    6  C14         0      21.700  20.063  -3.968  1.00  0.00     0.107 C 
HETATM    7  C15         0      22.928  19.967  -4.607  1.00  0.00     0.049 C 
HETATM    8  C16         0      24.084  19.648  -3.906  1.00  0.00     0.093 C 
HETATM    9  C18         0      24.052  19.955  -2.551  1.00  0.00     0.048 C 
HETATM   10  C19         0      22.840  20.104  -1.890  1.00  0.00     0.096 C 
HETATM   11  C21         0      21.668  19.965  -2.581  1.00  0.00     0.084 C 
ENDROOT
BRANCH  10  12
HETATM   12  O20         0      22.801  19.975  -0.505  1.00  0.00    -0.359 OA
HETATM   13  H20         0      23.286  19.260  -0.110  1.00  0.00     0.218 HD
ENDBRANCH  10  12
BRANCH   4  14
HETATM   14  C5          0      18.340  19.297  -4.930  1.00  0.00     0.025 C 
HETATM   15  C6          0      18.480  19.118  -6.298  1.00  0.00     0.004 C 
HETATM   16  C7          0      17.904  17.984  -6.863  1.00  0.00     0.026 C 
HETATM   17  C8          0      17.102  17.126  -6.118  1.00  0.00     0.112 C 
HETATM   18  C10         0      16.520  17.703  -4.997  1.00  0.00     0.112 C 
HETATM   19  C12         0      17.162  18.783  -4.402  1.00  0.00     0.028 C 
BRANCH  17  20
HETATM   20  O9          0      17.080  15.768  -6.382  1.00  0.00    -0.357 OA
HETATM   21  H9          0      17.492  15.116  -5.827  1.00  0.00     0.218 HD
ENDBRANCH  17  20
BRANCH  18  22
HETATM   22  O11         0      15.565  16.952  -4.328  1.00  0.00    -0.357 OA
HETATM   23  H11         0      15.871  16.179  -3.868  1.00  0.00     0.218 HD
ENDBRANCH  18  22
ENDBRANCH   4  14
BRANCH   8  24
HETATM   24  O17         0      25.049  18.788  -4.443  1.00  0.00    -0.359 OA
HETATM   25  H17         0      25.803  19.119  -4.917  1.00  0.00     0.218 HD
ENDBRANCH   8  24
TORSDOF 5
ENDMDL
MODEL 8
REMARK VINA RESULT:      -0.7      2.097      2.535
REMARK  5 active torsions:
REMARK  status: ('A' for Active; 'I' for Inactive)
REMARK    1  A    between atoms: C4_4  and  C5_5 
REMARK    2  A    between atoms: C8_8  and  O9_9 
REMARK    3  A    between atoms: C10_11  and  O11_12 
REMARK    4  A    between atoms: C16_18  and  O17_19 
REMARK    5  A    between atoms: C19_22  and  O20_23 
ROOT
HETATM    1  O1          0      21.380  17.388  -5.188  1.00  0.00    -0.286 OA
HETATM    2  C2          0      21.912  18.287  -4.480  1.00  0.00     0.201 C 
HETATM    3  C3          0      23.251  18.623  -4.575  1.00  0.00     0.067 C 
HETATM    4  C4          0      23.834  19.545  -3.712  1.00  0.00     0.103 C 
HETATM    5  O13         0      23.078  20.123  -2.796  1.00  0.00    -0.307 OA
HETATM    6  C14         0      21.810  19.813  -2.639  1.00  0.00     0.107 C 
HETATM    7  C15         0      21.128  20.098  -1.465  1.00  0.00     0.049 C 
HETATM    8  C16         0      19.878  19.549  -1.205  1.00  0.00     0.093 C 
HETATM    9  C18         0      19.154  19.178  -2.332  1.00  0.00     0.048 C 
HETATM   10  C19         0      19.800  18.930  -3.535  1.00  0.00     0.096 C 
HETATM   11  C21         0      21.159  19.070  -3.618  1.00  0.00     0.084 C 
ENDROOT
BRANCH  10  12
HETATM   12  O20         0      19.164  18.160  -4.503  1.00  0.00    -0.359 OA
HETATM   13  H20         0      18.232  18.288  -4.632  1.00  0.00     0.218 HD
ENDBRANCH  10  12
BRANCH   4  14
HETATM   14  C5          0      25.270  19.409  -3.458  1.00  0.00     0.025 C 
HETATM   15  C6          0      25.780  18.667  -2.403  1.00  0.00     0.004 C 
HETATM   16  C7          0      26.938  17.931  -2.632  1.00  0.00     0.026 C 
HETATM   17  C8          0      27.642  18.033  -3.827  1.00  0.00     0.112 C 
HETATM   18  C10         0      27.433  19.216  -4.524  1.00  0.00     0.112 C 
HETATM   19  C12         0      26.230  19.887  -4.340  1.00  0.00     0.028 C 
BRANCH  17  20
HETATM   20  O9          0      28.314  16.942  -4.349  1.00  0.00    -0.357 OA
HETATM   21  H9          0      28.666  16.236  -3.819  1.00  0.00     0.218 HD
ENDBRANCH  17  20
BRANCH  18  22
HETATM   22  O11         0      28.250  19.451  -5.622  1.00  0.00    -0.357 OA
HETATM   23  H11         0      28.299  18.763  -6.276  1.00  0.00     0.218 HD
ENDBRANCH  18  22
ENDBRANCH   4  14
BRANCH   8  24
HETATM   24  O17         0      19.531  19.100   0.074  1.00  0.00    -0.359 OA
HETATM   25  H17         0      19.268  19.702   0.760  1.00  0.00     0.218 HD
ENDBRANCH   8  24
TORSDOF 5
ENDMDL
MODEL 9
REMARK VINA RESULT:      -0.6      3.139      5.957
REMARK  5 active torsions:
REMARK  status: ('A' for Active; 'I' for Inactive)
REMARK    1  A    between atoms: C4_4  and  C5_5 
REMARK    2  A    between atoms: C8_8  and  O9_9 
REMARK    3  A    between atoms: C10_11  and  O11_12 
REMARK    4  A    between atoms: C16_18  and  O17_19 
REMARK    5  A    between atoms: C19_22  and  O20_23 
ROOT
HETATM    1  O1          0      17.949  17.643  -3.419  1.00  0.00    -0.286 OA
HETATM    2  C2          0      18.844  18.447  -3.800  1.00  0.00     0.201 C 
HETATM    3  C3          0      19.131  18.673  -5.135  1.00  0.00     0.067 C 
HETATM    4  C4          0      20.190  19.484  -5.526  1.00  0.00     0.103 C 
HETATM    5  O13         0      20.922  20.066  -4.592  1.00  0.00    -0.307 OA
HETATM    6  C14         0      20.715  19.856  -3.310  1.00  0.00     0.107 C 
HETATM    7  C15         0      21.690  20.123  -2.359  1.00  0.00     0.049 C 
HETATM    8  C16         0      21.567  19.667  -1.052  1.00  0.00     0.093 C 
HETATM    9  C18         0      20.263  19.431  -0.633  1.00  0.00     0.048 C 
HETATM   10  C19         0      19.254  19.207  -1.560  1.00  0.00     0.096 C 
HETATM   11  C21         0      19.542  19.235  -2.897  1.00  0.00     0.084 C 
ENDROOT
BRANCH  10  12
HETATM   12  O20         0      18.092  18.556  -1.156  1.00  0.00    -0.359 OA
HETATM   13  H20         0      18.170  17.670  -0.824  1.00  0.00     0.218 HD
ENDBRANCH  10  12
BRANCH   4  14
HETATM   14  C5          0      20.799  19.211  -6.829  1.00  0.00     0.025 C 
HETATM   15  C6          0      22.167  19.276  -7.049  1.00  0.00     0.004 C 
HETATM   16  C7          0      22.730  18.325  -7.894  1.00  0.00     0.026 C 
HETATM   17  C8          0      21.944  17.423  -8.603  1.00  0.00     0.112 C 
HETATM   18  C10         0      20.634  17.834  -8.812  1.00  0.00     0.112 C 
HETATM   19  C12         0      20.068  18.720  -7.903  1.00  0.00     0.028 C 
BRANCH  17  20
HETATM   20  O9          0      22.401  16.145  -8.874  1.00  0.00    -0.357 OA
HETATM   21  H9          0      22.008  15.358  -8.516  1.00  0.00     0.218 HD
ENDBRANCH  17  20
BRANCH  18  22
HETATM   22  O11         0      19.864  17.064  -9.671  1.00  0.00    -0.357 OA
HETATM   23  H11         0      19.299  17.530 -10.276  1.00  0.00     0.218 HD
ENDBRANCH  18  22
ENDBRANCH   4  14
BRANCH   8  24
HETATM   24  O17         0      22.668  19.169  -0.347  1.00  0.00    -0.359 OA
HETATM   25  H17         0      23.399  19.725  -0.105  1.00  0.00     0.218 HD
ENDBRANCH   8  24
TORSDOF 5
ENDMDL
