MODEL 1
REMARK VINA RESULT:      -0.0      0.000      0.000
REMARK  5 active torsions:
REMARK  status: ('A' for Active; 'I' for Inactive)
REMARK    1  A    between atoms: C4_4  and  C5_5 
REMARK    2  A    between atoms: C8_8  and  O9_9 
REMARK    3  A    between atoms: C10_11  and  O11_12 
REMARK    4  A    between atoms: C16_18  and  O17_19 
REMARK    5  A    between atoms: C19_22  and  O20_23 
ROOT
HETATM    1  O1          0      57.484 120.506 -23.371  1.00  0.00    -0.286 OA
HETATM    2  C2          0      57.350 121.760 -23.404  1.00  0.00     0.201 C 
HETATM    3  C3          0      57.635 122.516 -24.528  1.00  0.00     0.067 C 
HETATM    4  C4          0      57.577 123.905 -24.505  1.00  0.00     0.103 C 
HETATM    5  O13         0      57.221 124.508 -23.385  1.00  0.00    -0.307 OA
HETATM    6  C14         0      56.975 123.839 -22.279  1.00  0.00     0.107 C 
HETATM    7  C15         0      56.997 124.452 -21.034  1.00  0.00     0.049 C 
HETATM    8  C16         0      56.992 123.705 -19.862  1.00  0.00     0.093 C 
HETATM    9  C18         0      56.442 122.434 -19.978  1.00  0.00     0.048 C 
HETATM   10  C19         0      56.362 121.811 -21.216  1.00  0.00     0.096 C 
HETATM   11  C21         0      56.813 122.459 -22.333  1.00  0.00     0.084 C 
ENDROOT
BRANCH  10  12
HETATM   12  O20         0      56.231 120.426 -21.273  1.00  0.00    -0.359 OA
HETATM   13  H20         0      56.033 120.032 -22.114  1.00  0.00     0.218 HD
ENDBRANCH  10  12
BRANCH   4  14
HETATM   14  C5          0      58.429 124.627 -25.453  1.00  0.00     0.025 C 
HETATM   15  C6          0      58.893 125.913 -25.219  1.00  0.00     0.004 C 
HETATM   16  C7          0      60.190 126.213 -25.622  1.00  0.00     0.026 C 
HETATM   17  C8          0      60.954 125.311 -26.354  1.00  0.00     0.112 C 
HETATM   18  C10         0      60.219 124.368 -27.060  1.00  0.00     0.112 C 
HETATM   19  C12         0      58.959 124.023 -26.586  1.00  0.00     0.028 C 
BRANCH  17  20
HETATM   20  O9          0      62.328 125.254 -26.196  1.00  0.00    -0.357 OA
HETATM   21  H9          0      62.893 126.018 -26.210  1.00  0.00     0.218 HD
ENDBRANCH  17  20
BRANCH  18  22
HETATM   22  O11         0      60.917 123.566 -27.951  1.00  0.00    -0.357 OA
HETATM   23  H11         0      61.368 122.812 -27.589  1.00  0.00     0.218 HD
ENDBRANCH  18  22
ENDBRANCH   4  14
BRANCH   8  24
HETATM   24  O17         0      57.775 124.070 -18.762  1.00  0.00    -0.359 OA
HETATM   25  H17         0      57.395 124.479 -17.992  1.00  0.00     0.218 HD
ENDBRANCH   8  24
TORSDOF 5
ENDMDL
MODEL 2
REMARK VINA RESULT:      -0.0      8.826     11.107
REMARK  5 active torsions:
REMARK  status: ('A' for Active; 'I' for Inactive)
REMARK    1  A    between atoms: C4_4  and  C5_5 
REMARK    2  A    between atoms: C8_8  and  O9_9 
REMARK    3  A    between atoms: C10_11  and  O11_12 
REMARK    4  A    between atoms: C16_18  and  O17_19 
REMARK    5  A    between atoms: C19_22  and  O20_23 
ROOT
HETATM    1  O1          0      54.234 112.038 -28.266  1.00  0.00    -0.286 OA
HETATM    2  C2          0      54.336 112.533 -27.110  1.00  0.00     0.201 C 
HETATM    3  C3          0      53.712 113.713 -26.741  1.00  0.00     0.067 C 
HETATM    4  C4          0      53.924 114.290 -25.494  1.00  0.00     0.103 C 
HETATM    5  O13         0      54.726 113.679 -24.640  1.00  0.00    -0.307 OA
HETATM    6  C14         0      55.372 112.578 -24.953  1.00  0.00     0.107 C 
HETATM    7  C15         0      56.491 112.160 -24.246  1.00  0.00     0.049 C 
HETATM    8  C16         0      57.314 111.150 -24.728  1.00  0.00     0.093 C 
HETATM    9  C18         0      56.702 110.263 -25.606  1.00  0.00     0.048 C 
HETATM   10  C19         0      55.554 110.632 -26.295  1.00  0.00     0.096 C 
HETATM   11  C21         0      55.012 111.872 -26.095  1.00  0.00     0.084 C 
ENDROOT
BRANCH  10  12
HETATM   12  O20         0      55.209 109.947 -27.456  1.00  0.00    -0.359 OA
HETATM   13  H20         0      54.407 109.438 -27.451  1.00  0.00     0.218 HD
ENDBRANCH  10  12
BRANCH   4  14
HETATM   14  C5          0      53.756 115.740 -25.390  1.00  0.00     0.025 C 
HETATM   15  C6          0      54.418 116.508 -24.442  1.00  0.00     0.004 C 
HETATM   16  C7          0      54.874 117.763 -24.833  1.00  0.00     0.026 C 
HETATM   17  C8          0      54.568 118.294 -26.081  1.00  0.00     0.112 C 
HETATM   18  C10         0      53.427 117.766 -26.672  1.00  0.00     0.112 C 
HETATM   19  C12         0      53.042 116.476 -26.327  1.00  0.00     0.028 C 
BRANCH  17  20
HETATM   20  O9          0      55.462 119.119 -26.739  1.00  0.00    -0.357 OA
HETATM   21  H9          0      56.375 119.212 -26.492  1.00  0.00     0.218 HD
ENDBRANCH  17  20
BRANCH  18  22
HETATM   22  O11         0      52.971 118.389 -27.825  1.00  0.00    -0.357 OA
HETATM   23  H11         0      52.126 118.822 -27.774  1.00  0.00     0.218 HD
ENDBRANCH  18  22
ENDBRANCH   4  14
BRANCH   8  24
HETATM   24  O17         0      58.706 111.224 -24.608  1.00  0.00    -0.359 OA
HETATM   25  H17         0      59.123 111.818 -23.996  1.00  0.00     0.218 HD
ENDBRANCH   8  24
TORSDOF 5
ENDMDL
MODEL 3
REMARK VINA RESULT:      -0.0      4.059      7.167
REMARK  5 active torsions:
REMARK  status: ('A' for Active; 'I' for Inactive)
REMARK    1  A    between atoms: C4_4  and  C5_5 
REMARK    2  A    between atoms: C8_8  and  O9_9 
REMARK    3  A    between atoms: C10_11  and  O11_12 
REMARK    4  A    between atoms: C16_18  and  O17_19 
REMARK    5  A    between atoms: C19_22  and  O20_23 
ROOT
HETATM    1  O1          0      59.770 120.723 -20.316  1.00  0.00    -0.286 OA
HETATM    2  C2          0      58.956 121.679 -20.435  1.00  0.00     0.201 C 
HETATM    3  C3          0      58.925 122.752 -19.559  1.00  0.00     0.067 C 
HETATM    4  C4          0      57.952 123.740 -19.652  1.00  0.00     0.103 C 
HETATM    5  O13         0      57.051 123.656 -20.614  1.00  0.00    -0.307 OA
HETATM    6  C14         0      57.012 122.640 -21.449  1.00  0.00     0.107 C 
HETATM    7  C15         0      55.872 122.338 -22.179  1.00  0.00     0.049 C 
HETATM    8  C16         0      55.749 121.131 -22.857  1.00  0.00     0.093 C 
HETATM    9  C18         0      56.951 120.526 -23.203  1.00  0.00     0.048 C 
HETATM   10  C19         0      58.120 120.840 -22.523  1.00  0.00     0.096 C 
HETATM   11  C21         0      58.092 121.766 -21.516  1.00  0.00     0.084 C 
ENDROOT
BRANCH  10  12
HETATM   12  O20         0      59.190 119.952 -22.563  1.00  0.00    -0.359 OA
HETATM   13  H20         0      59.224 119.328 -23.278  1.00  0.00     0.218 HD
ENDBRANCH  10  12
BRANCH   4  14
HETATM   14  C5          0      57.605 124.456 -18.422  1.00  0.00     0.025 C 
HETATM   15  C6          0      56.363 125.037 -18.216  1.00  0.00     0.004 C 
HETATM   16  C7          0      55.819 124.959 -16.938  1.00  0.00     0.026 C 
HETATM   17  C8          0      56.541 124.439 -15.868  1.00  0.00     0.112 C 
HETATM   18  C10         0      57.920 124.485 -16.024  1.00  0.00     0.112 C 
HETATM   19  C12         0      58.440 124.476 -17.312  1.00  0.00     0.028 C 
BRANCH  17  20
HETATM   20  O9          0      55.904 123.751 -14.851  1.00  0.00    -0.357 OA
HETATM   21  H9          0      55.017 123.934 -14.565  1.00  0.00     0.218 HD
ENDBRANCH  17  20
BRANCH  18  22
HETATM   22  O11         0      58.688 124.156 -14.915  1.00  0.00    -0.357 OA
HETATM   23  H11         0      58.547 123.298 -14.534  1.00  0.00     0.218 HD
ENDBRANCH  18  22
ENDBRANCH   4  14
BRANCH   8  24
HETATM   24  O17         0      54.538 120.429 -22.882  1.00  0.00    -0.359 OA
HETATM   25  H17         0      53.800 120.687 -22.342  1.00  0.00     0.218 HD
ENDBRANCH   8  24
TORSDOF 5
ENDMDL
MODEL 4
REMARK VINA RESULT:       0.0      8.867     11.949
REMARK  5 active torsions:
REMARK  status: ('A' for Active; 'I' for Inactive)
REMARK    1  A    between atoms: C4_4  and  C5_5 
REMARK    2  A    between atoms: C8_8  and  O9_9 
REMARK    3  A    between atoms: C10_11  and  O11_12 
REMARK    4  A    between atoms: C16_18  and  O17_19 
REMARK    5  A    between atoms: C19_22  and  O20_23 
ROOT
HETATM    1  O1          0      61.444 117.852 -20.552  1.00  0.00    -0.286 OA
HETATM    2  C2          0      61.125 116.664 -20.832  1.00  0.00     0.201 C 
HETATM    3  C3          0      60.663 115.768 -19.884  1.00  0.00     0.067 C 
HETATM    4  C4          0      60.417 114.436 -20.199  1.00  0.00     0.103 C 
HETATM    5  O13         0      60.613 114.031 -21.441  1.00  0.00    -0.307 OA
HETATM    6  C14         0      61.085 114.831 -22.371  1.00  0.00     0.107 C 
HETATM    7  C15         0      61.662 114.341 -23.534  1.00  0.00     0.049 C 
HETATM    8  C16         0      62.382 115.168 -24.387  1.00  0.00     0.093 C 
HETATM    9  C18         0      62.052 116.516 -24.315  1.00  0.00     0.048 C 
HETATM   10  C19         0      61.432 117.031 -23.185  1.00  0.00     0.096 C 
HETATM   11  C21         0      61.128 116.202 -22.140  1.00  0.00     0.084 C 
ENDROOT
BRANCH  10  12
HETATM   12  O20         0      61.500 118.398 -22.935  1.00  0.00    -0.359 OA
HETATM   13  H20         0      62.328 118.838 -23.089  1.00  0.00     0.218 HD
ENDBRANCH  10  12
BRANCH   4  14
HETATM   14  C5          0      60.528 113.460 -19.113  1.00  0.00     0.025 C 
HETATM   15  C6          0      60.846 112.127 -19.330  1.00  0.00     0.004 C 
HETATM   16  C7          0      61.679 111.504 -18.406  1.00  0.00     0.026 C 
HETATM   17  C8          0      62.073 112.142 -17.234  1.00  0.00     0.112 C 
HETATM   18  C10         0      61.229 113.162 -16.817  1.00  0.00     0.112 C 
HETATM   19  C12         0      60.471 113.825 -17.774  1.00  0.00     0.028 C 
BRANCH  17  20
HETATM   20  O9          0      63.317 111.897 -16.679  1.00  0.00    -0.357 OA
HETATM   21  H9          0      64.066 111.591 -17.176  1.00  0.00     0.218 HD
ENDBRANCH  17  20
BRANCH  18  22
HETATM   22  O11         0      61.470 113.703 -15.562  1.00  0.00    -0.357 OA
HETATM   23  H11         0      61.334 113.132 -14.814  1.00  0.00     0.218 HD
ENDBRANCH  18  22
ENDBRANCH   4  14
BRANCH   8  24
HETATM   24  O17         0      63.560 114.731 -25.004  1.00  0.00    -0.359 OA
HETATM   25  H17         0      64.285 114.378 -24.502  1.00  0.00     0.218 HD
ENDBRANCH   8  24
TORSDOF 5
ENDMDL
MODEL 5
REMARK VINA RESULT:       0.0      3.877      5.616
REMARK  5 active torsions:
REMARK  status: ('A' for Active; 'I' for Inactive)
REMARK    1  A    between atoms: C4_4  and  C5_5 
REMARK    2  A    between atoms: C8_8  and  O9_9 
REMARK    3  A    between atoms: C10_11  and  O11_12 
REMARK    4  A    between atoms: C16_18  and  O17_19 
REMARK    5  A    between atoms: C19_22  and  O20_23 
ROOT
HETATM    1  O1          0      58.486 121.390 -20.199  1.00  0.00    -0.286 OA
HETATM    2  C2          0      59.012 121.631 -21.320  1.00  0.00     0.201 C 
HETATM    3  C3          0      58.424 121.265 -22.519  1.00  0.00     0.067 C 
HETATM    4  C4          0      59.072 121.451 -23.735  1.00  0.00     0.103 C 
HETATM    5  O13         0      60.269 122.009 -23.738  1.00  0.00    -0.307 OA
HETATM    6  C14         0      60.888 122.341 -22.626  1.00  0.00     0.107 C 
HETATM    7  C15         0      62.260 122.544 -22.585  1.00  0.00     0.049 C 
HETATM    8  C16         0      62.940 122.641 -21.377  1.00  0.00     0.093 C 
HETATM    9  C18         0      62.166 123.053 -20.299  1.00  0.00     0.048 C 
HETATM   10  C19         0      60.786 122.907 -20.326  1.00  0.00     0.096 C 
HETATM   11  C21         0      60.181 122.369 -21.429  1.00  0.00     0.084 C 
ENDROOT
BRANCH  10  12
HETATM   12  O20         0      60.079 122.904 -19.127  1.00  0.00    -0.359 OA
HETATM   13  H20         0      59.807 123.740 -18.768  1.00  0.00     0.218 HD
ENDBRANCH  10  12
BRANCH   4  14
HETATM   14  C5          0      58.713 120.547 -24.830  1.00  0.00     0.025 C 
HETATM   15  C6          0      59.584 120.237 -25.864  1.00  0.00     0.004 C 
HETATM   16  C7          0      59.580 118.930 -26.340  1.00  0.00     0.026 C 
HETATM   17  C8          0      58.650 117.995 -25.897  1.00  0.00     0.112 C 
HETATM   18  C10         0      57.481 118.540 -25.382  1.00  0.00     0.112 C 
HETATM   19  C12         0      57.532 119.816 -24.835  1.00  0.00     0.028 C 
BRANCH  17  20
HETATM   20  O9          0      58.984 116.656 -25.796  1.00  0.00    -0.357 OA
HETATM   21  H9          0      58.503 115.958 -26.226  1.00  0.00     0.218 HD
ENDBRANCH  17  20
BRANCH  18  22
HETATM   22  O11         0      56.447 117.657 -25.102  1.00  0.00    -0.357 OA
HETATM   23  H11         0      56.644 116.730 -25.165  1.00  0.00     0.218 HD
ENDBRANCH  18  22
ENDBRANCH   4  14
BRANCH   8  24
HETATM   24  O17         0      64.196 122.050 -21.198  1.00  0.00    -0.359 OA
HETATM   25  H17         0      64.736 121.792 -21.936  1.00  0.00     0.218 HD
ENDBRANCH   8  24
TORSDOF 5
ENDMDL
MODEL 6
REMARK VINA RESULT:       0.0      9.594     11.126
REMARK  5 active torsions:
REMARK  status: ('A' for Active; 'I' for Inactive)
REMARK    1  A    between atoms: C4_4  and  C5_5 
REMARK    2  A    between atoms: C8_8  and  O9_9 
REMARK    3  A    between atoms: C10_11  and  O11_12 
REMARK    4  A    between atoms: C16_18  and  O17_19 
REMARK    5  A    between atoms: C19_22  and  O20_23 
ROOT
HETATM    1  O1          0      52.803 124.098 -17.204  1.00  0.00    -0.286 OA
HETATM    2  C2          0      52.826 124.461 -15.996  1.00  0.00     0.201 C 
HETATM    3  C3          0      53.817 125.276 -15.476  1.00  0.00     0.067 C 
HETATM    4  C4          0      53.876 125.577 -14.120  1.00  0.00     0.103 C 
HETATM    5  O13         0      52.946 125.085 -13.319  1.00  0.00    -0.307 OA
HETATM    6  C14         0      52.005 124.277 -13.755  1.00  0.00     0.107 C 
HETATM    7  C15         0      51.291 123.456 -12.895  1.00  0.00     0.049 C 
HETATM    8  C16         0      50.487 122.430 -13.377  1.00  0.00     0.093 C 
HETATM    9  C18         0      50.027 122.607 -14.677  1.00  0.00     0.048 C 
HETATM   10  C19         0      50.691 123.457 -15.550  1.00  0.00     0.096 C 
HETATM   11  C21         0      51.797 124.141 -15.123  1.00  0.00     0.084 C 
ENDROOT
BRANCH  10  12
HETATM   12  O20         0      50.509 123.302 -16.921  1.00  0.00    -0.359 OA
HETATM   13  H20         0      51.245 123.486 -17.492  1.00  0.00     0.218 HD
ENDBRANCH  10  12
BRANCH   4  14
HETATM   14  C5          0      55.191 125.895 -13.560  1.00  0.00     0.025 C 
HETATM   15  C6          0      55.511 125.687 -12.227  1.00  0.00     0.004 C 
HETATM   16  C7          0      56.793 125.231 -11.935  1.00  0.00     0.026 C 
HETATM   17  C8          0      57.767 125.114 -12.920  1.00  0.00     0.112 C 
HETATM   18  C10         0      57.563 125.916 -14.036  1.00  0.00     0.112 C 
HETATM   19  C12         0      56.262 126.287 -14.353  1.00  0.00     0.028 C 
BRANCH  17  20
HETATM   20  O9          0      58.725 124.118 -12.855  1.00  0.00    -0.357 OA
HETATM   21  H9          0      58.536 123.219 -12.613  1.00  0.00     0.218 HD
ENDBRANCH  17  20
BRANCH  18  22
HETATM   22  O11         0      58.595 125.980 -14.960  1.00  0.00    -0.357 OA
HETATM   23  H11         0      58.679 126.787 -15.456  1.00  0.00     0.218 HD
ENDBRANCH  18  22
ENDBRANCH   4  14
BRANCH   8  24
HETATM   24  O17         0      50.431 121.186 -12.740  1.00  0.00    -0.359 OA
HETATM   25  H17         0      51.102 120.908 -12.128  1.00  0.00     0.218 HD
ENDBRANCH   8  24
TORSDOF 5
ENDMDL
MODEL 7
REMARK VINA RESULT:       0.0      9.108     10.848
REMARK  5 active torsions:
REMARK  status: ('A' for Active; 'I' for Inactive)
REMARK    1  A    between atoms: C4_4  and  C5_5 
REMARK    2  A    between atoms: C8_8  and  O9_9 
REMARK    3  A    between atoms: C10_11  and  O11_12 
REMARK    4  A    between atoms: C16_18  and  O17_19 
REMARK    5  A    between atoms: C19_22  and  O20_23 
ROOT
HETATM    1  O1          0      55.472 124.810 -16.457  1.00  0.00    -0.286 OA
HETATM    2  C2          0      55.503 125.685 -15.549  1.00  0.00     0.201 C 
HETATM    3  C3          0      56.570 126.551 -15.378  1.00  0.00     0.067 C 
HETATM    4  C4          0      56.625 127.437 -14.308  1.00  0.00     0.103 C 
HETATM    5  O13         0      55.621 127.458 -13.449  1.00  0.00    -0.307 OA
HETATM    6  C14         0      54.603 126.631 -13.544  1.00  0.00     0.107 C 
HETATM    7  C15         0      53.771 126.370 -12.464  1.00  0.00     0.049 C 
HETATM    8  C16         0      52.864 125.317 -12.491  1.00  0.00     0.093 C 
HETATM    9  C18         0      52.467 124.916 -13.761  1.00  0.00     0.048 C 
HETATM   10  C19         0      53.252 125.203 -14.869  1.00  0.00     0.096 C 
HETATM   11  C21         0      54.419 125.900 -14.712  1.00  0.00     0.084 C 
ENDROOT
BRANCH  10  12
HETATM   12  O20         0      53.092 124.451 -16.029  1.00  0.00    -0.359 OA
HETATM   13  H20         0      52.330 123.888 -16.093  1.00  0.00     0.218 HD
ENDBRANCH  10  12
BRANCH   4  14
HETATM   14  C5          0      57.952 127.853 -13.851  1.00  0.00     0.025 C 
HETATM   15  C6          0      58.207 128.254 -12.548  1.00  0.00     0.004 C 
HETATM   16  C7          0      59.416 127.867 -11.979  1.00  0.00     0.026 C 
HETATM   17  C8          0      60.397 127.219 -12.721  1.00  0.00     0.112 C 
HETATM   18  C10         0      60.323 127.431 -14.091  1.00  0.00     0.112 C 
HETATM   19  C12         0      59.085 127.733 -14.646  1.00  0.00     0.028 C 
BRANCH  17  20
HETATM   20  O9          0      61.227 126.280 -12.133  1.00  0.00    -0.357 OA
HETATM   21  H9          0      61.920 126.498 -11.520  1.00  0.00     0.218 HD
ENDBRANCH  17  20
BRANCH  18  22
HETATM   22  O11         0      61.382 126.966 -14.858  1.00  0.00    -0.357 OA
HETATM   23  H11         0      61.816 127.597 -15.420  1.00  0.00     0.218 HD
ENDBRANCH  18  22
ENDBRANCH   4  14
BRANCH   8  24
HETATM   24  O17         0      52.642 124.518 -11.364  1.00  0.00    -0.359 OA
HETATM   25  H17         0      53.247 124.507 -10.632  1.00  0.00     0.218 HD
ENDBRANCH   8  24
TORSDOF 5
ENDMDL
MODEL 8
REMARK VINA RESULT:       0.0      4.973      7.770
REMARK  5 active torsions:
REMARK  status: ('A' for Active; 'I' for Inactive)
REMARK    1  A    between atoms: C4_4  and  C5_5 
REMARK    2  A    between atoms: C8_8  and  O9_9 
REMARK    3  A    between atoms: C10_11  and  O11_12 
REMARK    4  A    between atoms: C16_18  and  O17_19 
REMARK    5  A    between atoms: C19_22  and  O20_23 
ROOT
HETATM    1  O1          0      60.396 129.976 -21.139  1.00  0.00    -0.286 OA
HETATM    2  C2          0      59.886 129.546 -22.209  1.00  0.00     0.201 C 
HETATM    3  C3          0      58.608 129.885 -22.620  1.00  0.00     0.067 C 
HETATM    4  C4          0      58.031 129.316 -23.751  1.00  0.00     0.103 C 
HETATM    5  O13         0      58.736 128.447 -24.454  1.00  0.00    -0.307 OA
HETATM    6  C14         0      59.939 128.063 -24.087  1.00  0.00     0.107 C 
HETATM    7  C15         0      60.510 126.893 -24.567  1.00  0.00     0.049 C 
HETATM    8  C16         0      61.658 126.362 -23.991  1.00  0.00     0.093 C 
HETATM    9  C18         0      62.461 127.281 -23.327  1.00  0.00     0.048 C 
HETATM   10  C19         0      61.933 128.483 -22.875  1.00  0.00     0.096 C 
HETATM   11  C21         0      60.614 128.772 -23.100  1.00  0.00     0.084 C 
ENDROOT
BRANCH  10  12
HETATM   12  O20         0      62.590 129.178 -21.865  1.00  0.00    -0.359 OA
HETATM   13  H20         0      63.288 128.732 -21.400  1.00  0.00     0.218 HD
ENDBRANCH  10  12
BRANCH   4  14
HETATM   14  C5          0      56.570 129.232 -23.787  1.00  0.00     0.025 C 
HETATM   15  C6          0      55.890 128.268 -24.516  1.00  0.00     0.004 C 
HETATM   16  C7          0      54.741 127.723 -23.951  1.00  0.00     0.026 C 
HETATM   17  C8          0      54.210 128.214 -22.763  1.00  0.00     0.112 C 
HETATM   18  C10         0      54.563 129.523 -22.468  1.00  0.00     0.112 C 
HETATM   19  C12         0      55.759 130.016 -22.976  1.00  0.00     0.028 C 
BRANCH  17  20
HETATM   20  O9          0      53.566 127.372 -21.874  1.00  0.00    -0.357 OA
HETATM   21  H9          0      52.916 127.665 -21.246  1.00  0.00     0.218 HD
ENDBRANCH  17  20
BRANCH  18  22
HETATM   22  O11         0      53.913 130.123 -21.399  1.00  0.00    -0.357 OA
HETATM   23  H11         0      54.444 130.351 -20.644  1.00  0.00     0.218 HD
ENDBRANCH  18  22
ENDBRANCH   4  14
BRANCH   8  24
HETATM   24  O17         0      61.810 124.983 -23.806  1.00  0.00    -0.359 OA
HETATM   25  H17         0      62.066 124.409 -24.518  1.00  0.00     0.218 HD
ENDBRANCH   8  24
TORSDOF 5
ENDMDL
MODEL 9
REMARK VINA RESULT:       0.0      5.435      7.998
REMARK  5 active torsions:
REMARK  status: ('A' for Active; 'I' for Inactive)
REMARK    1  A    between atoms: C4_4  and  C5_5 
REMARK    2  A    between atoms: C8_8  and  O9_9 
REMARK    3  A    between atoms: C10_11  and  O11_12 
REMARK    4  A    between atoms: C16_18  and  O17_19 
REMARK    5  A    between atoms: C19_22  and  O20_23 
ROOT
HETATM    1  O1          0      54.779 115.838 -21.283  1.00  0.00    -0.286 OA
HETATM    2  C2          0      55.747 116.500 -21.748  1.00  0.00     0.201 C 
HETATM    3  C3          0      57.054 116.047 -21.708  1.00  0.00     0.067 C 
HETATM    4  C4          0      58.114 116.840 -22.134  1.00  0.00     0.103 C 
HETATM    5  O13         0      57.854 118.046 -22.607  1.00  0.00    -0.307 OA
HETATM    6  C14         0      56.635 118.539 -22.633  1.00  0.00     0.107 C 
HETATM    7  C15         0      56.400 119.902 -22.741  1.00  0.00     0.049 C 
HETATM    8  C16         0      55.137 120.437 -22.513  1.00  0.00     0.093 C 
HETATM    9  C18         0      54.082 119.554 -22.706  1.00  0.00     0.048 C 
HETATM   10  C19         0      54.291 118.182 -22.651  1.00  0.00     0.096 C 
HETATM   11  C21         0      55.549 117.696 -22.422  1.00  0.00     0.084 C 
ENDROOT
BRANCH  10  12
HETATM   12  O20         0      53.211 117.339 -22.408  1.00  0.00    -0.359 OA
HETATM   13  H20         0      52.685 117.064 -23.150  1.00  0.00     0.218 HD
ENDBRANCH  10  12
BRANCH   4  14
HETATM   14  C5          0      59.425 116.586 -21.534  1.00  0.00     0.025 C 
HETATM   15  C6          0      60.404 117.563 -21.424  1.00  0.00     0.004 C 
HETATM   16  C7          0      61.175 117.575 -20.267  1.00  0.00     0.026 C 
HETATM   17  C8          0      61.071 116.571 -19.311  1.00  0.00     0.112 C 
HETATM   18  C10         0      60.570 115.367 -19.786  1.00  0.00     0.112 C 
HETATM   19  C12         0      59.732 115.392 -20.895  1.00  0.00     0.028 C 
BRANCH  17  20
HETATM   20  O9          0      61.258 116.849 -17.968  1.00  0.00    -0.357 OA
HETATM   21  H9          0      60.555 117.093 -17.377  1.00  0.00     0.218 HD
ENDBRANCH  17  20
BRANCH  18  22
HETATM   22  O11         0      60.622 114.280 -18.925  1.00  0.00    -0.357 OA
HETATM   23  H11         0      60.061 113.541 -19.130  1.00  0.00     0.218 HD
ENDBRANCH  18  22
ENDBRANCH   4  14
BRANCH   8  24
HETATM   24  O17         0      54.970 121.644 -21.825  1.00  0.00    -0.359 OA
HETATM   25  H17         0      54.109 122.003 -21.649  1.00  0.00     0.218 HD
ENDBRANCH   8  24
TORSDOF 5
ENDMDL
