MODEL 1
REMARK VINA RESULT:      -0.0      0.000      0.000
REMARK  5 active torsions:
REMARK  status: ('A' for Active; 'I' for Inactive)
REMARK    1  A    between atoms: C4_4  and  C5_5 
REMARK    2  A    between atoms: C8_8  and  O9_9 
REMARK    3  A    between atoms: C10_11  and  O11_12 
REMARK    4  A    between atoms: C16_18  and  O17_19 
REMARK    5  A    between atoms: C19_22  and  O20_23 
ROOT
HETATM    1  O1          0      58.575  80.993  38.757  1.00  0.00    -0.286 OA
HETATM    2  C2          0      58.963  82.163  38.490  1.00  0.00     0.201 C 
HETATM    3  C3          0      58.799  83.226  39.362  1.00  0.00     0.067 C 
HETATM    4  C4          0      59.142  84.524  39.002  1.00  0.00     0.103 C 
HETATM    5  O13         0      59.656  84.735  37.803  1.00  0.00    -0.307 OA
HETATM    6  C14         0      59.798  83.768  36.923  1.00  0.00     0.107 C 
HETATM    7  C15         0      59.949  84.028  35.569  1.00  0.00     0.049 C 
HETATM    8  C16         0      59.844  83.015  34.623  1.00  0.00     0.093 C 
HETATM    9  C18         0      60.115  81.738  35.098  1.00  0.00     0.048 C 
HETATM   10  C19         0      60.020  81.455  36.454  1.00  0.00     0.096 C 
HETATM   11  C21         0      59.672  82.445  37.332  1.00  0.00     0.084 C 
ENDROOT
BRANCH  10  12
HETATM   12  O20         0      59.861  80.134  36.863  1.00  0.00    -0.359 OA
HETATM   13  H20         0      60.332  79.848  37.637  1.00  0.00     0.218 HD
ENDBRANCH  10  12
BRANCH   4  14
HETATM   14  C5          0      58.423  85.615  39.662  1.00  0.00     0.025 C 
HETATM   15  C6          0      58.242  86.859  39.077  1.00  0.00     0.004 C 
HETATM   16  C7          0      57.021  87.495  39.277  1.00  0.00     0.026 C 
HETATM   17  C8          0      56.061  86.975  40.139  1.00  0.00     0.112 C 
HETATM   18  C10         0      56.559  86.127  41.119  1.00  0.00     0.112 C 
HETATM   19  C12         0      57.738  85.438  40.858  1.00  0.00     0.028 C 
BRANCH  17  20
HETATM   20  O9          0      54.712  87.141  39.880  1.00  0.00    -0.357 OA
HETATM   21  H9          0      54.270  87.982  39.900  1.00  0.00     0.218 HD
ENDBRANCH  17  20
BRANCH  18  22
HETATM   22  O11         0      55.679  85.732  42.116  1.00  0.00    -0.357 OA
HETATM   23  H11         0      56.051  85.552  42.971  1.00  0.00     0.218 HD
ENDBRANCH  18  22
ENDBRANCH   4  14
BRANCH   8  24
HETATM   24  O17         0      59.193  83.223  33.402  1.00  0.00    -0.359 OA
HETATM   25  H17         0      58.269  83.439  33.359  1.00  0.00     0.218 HD
ENDBRANCH   8  24
TORSDOF 5
ENDMDL
MODEL 2
REMARK VINA RESULT:       0.0      7.892     10.994
REMARK  5 active torsions:
REMARK  status: ('A' for Active; 'I' for Inactive)
REMARK    1  A    between atoms: C4_4  and  C5_5 
REMARK    2  A    between atoms: C8_8  and  O9_9 
REMARK    3  A    between atoms: C10_11  and  O11_12 
REMARK    4  A    between atoms: C16_18  and  O17_19 
REMARK    5  A    between atoms: C19_22  and  O20_23 
ROOT
HETATM    1  O1          0      61.235  79.410  45.112  1.00  0.00    -0.286 OA
HETATM    2  C2          0      61.556  78.289  44.631  1.00  0.00     0.201 C 
HETATM    3  C3          0      62.328  78.156  43.490  1.00  0.00     0.067 C 
HETATM    4  C4          0      62.581  76.911  42.923  1.00  0.00     0.103 C 
HETATM    5  O13         0      62.086  75.835  43.508  1.00  0.00    -0.307 OA
HETATM    6  C14         0      61.316  75.909  44.571  1.00  0.00     0.107 C 
HETATM    7  C15         0      60.483  74.864  44.945  1.00  0.00     0.049 C 
HETATM    8  C16         0      59.495  75.037  45.906  1.00  0.00     0.093 C 
HETATM    9  C18         0      59.727  76.069  46.807  1.00  0.00     0.048 C 
HETATM   10  C19         0      60.590  77.107  46.484  1.00  0.00     0.096 C 
HETATM   11  C21         0      61.231  77.105  45.276  1.00  0.00     0.084 C 
ENDROOT
BRANCH  10  12
HETATM   12  O20         0      60.486  78.315  47.166  1.00  0.00    -0.359 OA
HETATM   13  H20         0      59.808  78.922  46.895  1.00  0.00     0.218 HD
ENDBRANCH  10  12
BRANCH   4  14
HETATM   14  C5          0      62.848  76.873  41.484  1.00  0.00     0.025 C 
HETATM   15  C6          0      62.587  75.758  40.701  1.00  0.00     0.004 C 
HETATM   16  C7          0      62.090  75.973  39.419  1.00  0.00     0.026 C 
HETATM   17  C8          0      61.983  77.251  38.883  1.00  0.00     0.112 C 
HETATM   18  C10         0      62.827  78.193  39.457  1.00  0.00     0.112 C 
HETATM   19  C12         0      63.240  77.997  40.769  1.00  0.00     0.028 C 
BRANCH  17  20
HETATM   20  O9          0      60.962  77.568  38.005  1.00  0.00    -0.357 OA
HETATM   21  H9          0      60.787  78.449  37.695  1.00  0.00     0.218 HD
ENDBRANCH  17  20
BRANCH  18  22
HETATM   22  O11         0      62.897  79.433  38.838  1.00  0.00    -0.357 OA
HETATM   23  H11         0      62.144  80.005  38.934  1.00  0.00     0.218 HD
ENDBRANCH  18  22
ENDBRANCH   4  14
BRANCH   8  24
HETATM   24  O17         0      58.231  74.452  45.767  1.00  0.00    -0.359 OA
HETATM   25  H17         0      57.508  74.917  45.363  1.00  0.00     0.218 HD
ENDBRANCH   8  24
TORSDOF 5
ENDMDL
MODEL 3
REMARK VINA RESULT:       0.0     11.047     13.045
REMARK  5 active torsions:
REMARK  status: ('A' for Active; 'I' for Inactive)
REMARK    1  A    between atoms: C4_4  and  C5_5 
REMARK    2  A    between atoms: C8_8  and  O9_9 
REMARK    3  A    between atoms: C10_11  and  O11_12 
REMARK    4  A    between atoms: C16_18  and  O17_19 
REMARK    5  A    between atoms: C19_22  and  O20_23 
ROOT
HETATM    1  O1          0      65.149  76.940  41.230  1.00  0.00    -0.286 OA
HETATM    2  C2          0      64.553  76.040  41.882  1.00  0.00     0.201 C 
HETATM    3  C3          0      64.297  76.141  43.239  1.00  0.00     0.067 C 
HETATM    4  C4          0      63.731  75.092  43.954  1.00  0.00     0.103 C 
HETATM    5  O13         0      63.415  73.982  43.310  1.00  0.00    -0.307 OA
HETATM    6  C14         0      63.671  73.820  42.030  1.00  0.00     0.107 C 
HETATM    7  C15         0      63.719  72.561  41.448  1.00  0.00     0.049 C 
HETATM    8  C16         0      64.235  72.376  40.171  1.00  0.00     0.093 C 
HETATM    9  C18         0      64.187  73.496  39.351  1.00  0.00     0.048 C 
HETATM   10  C19         0      64.092  74.768  39.899  1.00  0.00     0.096 C 
HETATM   11  C21         0      64.027  74.919  41.257  1.00  0.00     0.084 C 
ENDROOT
BRANCH  10  12
HETATM   12  O20         0      64.478  75.868  39.138  1.00  0.00    -0.359 OA
HETATM   13  H20         0      65.355  76.210  39.263  1.00  0.00     0.218 HD
ENDBRANCH  10  12
BRANCH   4  14
HETATM   14  C5          0      64.037  75.014  45.384  1.00  0.00     0.025 C 
HETATM   15  C6          0      64.026  73.820  46.091  1.00  0.00     0.004 C 
HETATM   16  C7          0      65.004  73.638  47.064  1.00  0.00     0.026 C 
HETATM   17  C8          0      65.880  74.659  47.417  1.00  0.00     0.112 C 
HETATM   18  C10         0      65.421  75.939  47.139  1.00  0.00     0.112 C 
HETATM   19  C12         0      64.507  76.104  46.105  1.00  0.00     0.028 C 
BRANCH  17  20
HETATM   20  O9          0      67.177  74.375  47.809  1.00  0.00    -0.357 OA
HETATM   21  H9          0      67.710  73.693  47.418  1.00  0.00     0.218 HD
ENDBRANCH  17  20
BRANCH  18  22
HETATM   22  O11         0      66.168  76.997  47.640  1.00  0.00    -0.357 OA
HETATM   23  H11         0      66.234  77.772  47.094  1.00  0.00     0.218 HD
ENDBRANCH  18  22
ENDBRANCH   4  14
BRANCH   8  24
HETATM   24  O17         0      65.034  71.270  39.861  1.00  0.00    -0.359 OA
HETATM   25  H17         0      65.141  70.546  40.466  1.00  0.00     0.218 HD
ENDBRANCH   8  24
TORSDOF 5
ENDMDL
MODEL 4
REMARK VINA RESULT:       0.0     10.044     11.632
REMARK  5 active torsions:
REMARK  status: ('A' for Active; 'I' for Inactive)
REMARK    1  A    between atoms: C4_4  and  C5_5 
REMARK    2  A    between atoms: C8_8  and  O9_9 
REMARK    3  A    between atoms: C10_11  and  O11_12 
REMARK    4  A    between atoms: C16_18  and  O17_19 
REMARK    5  A    between atoms: C19_22  and  O20_23 
ROOT
HETATM    1  O1          0      65.149  76.940  41.230  1.00  0.00    -0.286 OA
HETATM    2  C2          0      64.226  76.216  41.693  1.00  0.00     0.201 C 
HETATM    3  C3          0      63.223  76.709  42.510  1.00  0.00     0.067 C 
HETATM    4  C4          0      62.277  75.871  43.090  1.00  0.00     0.103 C 
HETATM    5  O13         0      62.335  74.576  42.834  1.00  0.00    -0.307 OA
HETATM    6  C14         0      63.288  74.051  42.096  1.00  0.00     0.107 C 
HETATM    7  C15         0      63.591  72.698  42.148  1.00  0.00     0.049 C 
HETATM    8  C16         0      64.750  72.195  41.569  1.00  0.00     0.093 C 
HETATM    9  C18         0      65.270  72.963  40.534  1.00  0.00     0.048 C 
HETATM   10  C19         0      64.950  74.310  40.426  1.00  0.00     0.096 C 
HETATM   11  C21         0      64.103  74.882  41.335  1.00  0.00     0.084 C 
ENDROOT
BRANCH  10  12
HETATM   12  O20         0      65.782  75.149  39.691  1.00  0.00    -0.359 OA
HETATM   13  H20         0      65.803  75.041  38.747  1.00  0.00     0.218 HD
ENDBRANCH  10  12
BRANCH   4  14
HETATM   14  C5          0      61.670  76.315  44.346  1.00  0.00     0.025 C 
HETATM   15  C6          0      61.166  75.432  45.291  1.00  0.00     0.004 C 
HETATM   16  C7          0      61.363  75.742  46.632  1.00  0.00     0.026 C 
HETATM   17  C8          0      61.923  76.952  47.027  1.00  0.00     0.112 C 
HETATM   18  C10         0      61.800  77.978  46.099  1.00  0.00     0.112 C 
HETATM   19  C12         0      61.690  77.642  44.755  1.00  0.00     0.028 C 
BRANCH  17  20
HETATM   20  O9          0      62.712  77.032  48.160  1.00  0.00    -0.357 OA
HETATM   21  H9          0      62.758  77.799  48.719  1.00  0.00     0.218 HD
ENDBRANCH  17  20
BRANCH  18  22
HETATM   22  O11         0      62.171  79.249  46.515  1.00  0.00    -0.357 OA
HETATM   23  H11         0      62.984  79.322  47.001  1.00  0.00     0.218 HD
ENDBRANCH  18  22
ENDBRANCH   4  14
BRANCH   8  24
HETATM   24  O17         0      65.505  71.198  42.196  1.00  0.00    -0.359 OA
HETATM   25  H17         0      65.185  70.738  42.964  1.00  0.00     0.218 HD
ENDBRANCH   8  24
TORSDOF 5
ENDMDL
MODEL 5
REMARK VINA RESULT:       0.0      9.191     11.893
REMARK  5 active torsions:
REMARK  status: ('A' for Active; 'I' for Inactive)
REMARK    1  A    between atoms: C4_4  and  C5_5 
REMARK    2  A    between atoms: C8_8  and  O9_9 
REMARK    3  A    between atoms: C10_11  and  O11_12 
REMARK    4  A    between atoms: C16_18  and  O17_19 
REMARK    5  A    between atoms: C19_22  and  O20_23 
ROOT
HETATM    1  O1          0      64.706  83.586  41.810  1.00  0.00    -0.286 OA
HETATM    2  C2          0      65.892  83.177  41.944  1.00  0.00     0.201 C 
HETATM    3  C3          0      66.498  82.323  41.039  1.00  0.00     0.067 C 
HETATM    4  C4          0      67.769  81.807  41.264  1.00  0.00     0.103 C 
HETATM    5  O13         0      68.414  82.161  42.361  1.00  0.00    -0.307 OA
HETATM    6  C14         0      67.869  82.938  43.271  1.00  0.00     0.107 C 
HETATM    7  C15         0      68.351  82.991  44.572  1.00  0.00     0.049 C 
HETATM    8  C16         0      67.628  83.608  45.585  1.00  0.00     0.093 C 
HETATM    9  C18         0      66.733  84.582  45.158  1.00  0.00     0.048 C 
HETATM   10  C19         0      66.267  84.588  43.850  1.00  0.00     0.096 C 
HETATM   11  C21         0      66.704  83.636  42.970  1.00  0.00     0.084 C 
ENDROOT
BRANCH  10  12
HETATM   12  O20         0      65.085  85.258  43.552  1.00  0.00    -0.359 OA
HETATM   13  H20         0      64.964  85.575  42.665  1.00  0.00     0.218 HD
ENDBRANCH  10  12
BRANCH   4  14
HETATM   14  C5          0      68.088  80.519  40.644  1.00  0.00     0.025 C 
HETATM   15  C6          0      69.028  79.644  41.169  1.00  0.00     0.004 C 
HETATM   16  C7          0      68.748  78.283  41.104  1.00  0.00     0.026 C 
HETATM   17  C8          0      67.637  77.798  40.422  1.00  0.00     0.112 C 
HETATM   18  C10         0      67.147  78.645  39.437  1.00  0.00     0.112 C 
HETATM   19  C12         0      67.368  80.011  39.571  1.00  0.00     0.028 C 
BRANCH  17  20
HETATM   20  O9          0      66.976  76.664  40.859  1.00  0.00    -0.357 OA
HETATM   21  H9          0      67.402  75.826  40.999  1.00  0.00     0.218 HD
ENDBRANCH  17  20
BRANCH  18  22
HETATM   22  O11         0      66.163  78.135  38.602  1.00  0.00    -0.357 OA
HETATM   23  H11         0      65.576  78.762  38.195  1.00  0.00     0.218 HD
ENDBRANCH  18  22
ENDBRANCH   4  14
BRANCH   8  24
HETATM   24  O17         0      67.560  83.060  46.871  1.00  0.00    -0.359 OA
HETATM   25  H17         0      66.729  82.900  47.302  1.00  0.00     0.218 HD
ENDBRANCH   8  24
TORSDOF 5
ENDMDL
MODEL 6
REMARK VINA RESULT:       0.0      8.616     11.159
REMARK  5 active torsions:
REMARK  status: ('A' for Active; 'I' for Inactive)
REMARK    1  A    between atoms: C4_4  and  C5_5 
REMARK    2  A    between atoms: C8_8  and  O9_9 
REMARK    3  A    between atoms: C10_11  and  O11_12 
REMARK    4  A    between atoms: C16_18  and  O17_19 
REMARK    5  A    between atoms: C19_22  and  O20_23 
ROOT
HETATM    1  O1          0      68.231  78.485  39.378  1.00  0.00    -0.286 OA
HETATM    2  C2          0      67.145  77.857  39.248  1.00  0.00     0.201 C 
HETATM    3  C3          0      66.760  77.260  38.060  1.00  0.00     0.067 C 
HETATM    4  C4          0      65.513  76.662  37.915  1.00  0.00     0.103 C 
HETATM    5  O13         0      64.691  76.651  38.949  1.00  0.00    -0.307 OA
HETATM    6  C14         0      64.991  77.236  40.088  1.00  0.00     0.107 C 
HETATM    7  C15         0      64.017  77.576  41.014  1.00  0.00     0.049 C 
HETATM    8  C16         0      64.301  78.413  42.087  1.00  0.00     0.093 C 
HETATM    9  C18         0      65.636  78.439  42.473  1.00  0.00     0.048 C 
HETATM   10  C19         0      66.634  78.060  41.585  1.00  0.00     0.096 C 
HETATM   11  C21         0      66.300  77.640  40.326  1.00  0.00     0.084 C 
ENDROOT
BRANCH  10  12
HETATM   12  O20         0      67.939  78.490  41.805  1.00  0.00    -0.359 OA
HETATM   13  H20         0      68.095  79.424  41.870  1.00  0.00     0.218 HD
ENDBRANCH  10  12
BRANCH   4  14
HETATM   14  C5          0      64.949  76.609  36.565  1.00  0.00     0.025 C 
HETATM   15  C6          0      63.584  76.563  36.322  1.00  0.00     0.004 C 
HETATM   16  C7          0      63.099  77.282  35.234  1.00  0.00     0.026 C 
HETATM   17  C8          0      63.954  77.915  34.338  1.00  0.00     0.112 C 
HETATM   18  C10         0      65.239  77.391  34.294  1.00  0.00     0.112 C 
HETATM   19  C12         0      65.730  76.751  35.425  1.00  0.00     0.028 C 
BRANCH  17  20
HETATM   20  O9          0      63.584  79.097  33.720  1.00  0.00    -0.357 OA
HETATM   21  H9          0      62.817  79.602  33.963  1.00  0.00     0.218 HD
ENDBRANCH  17  20
BRANCH  18  22
HETATM   22  O11         0      66.073  77.858  33.288  1.00  0.00    -0.357 OA
HETATM   23  H11         0      65.671  78.378  32.602  1.00  0.00     0.218 HD
ENDBRANCH  18  22
ENDBRANCH   4  14
BRANCH   8  24
HETATM   24  O17         0      63.394  79.390  42.511  1.00  0.00    -0.359 OA
HETATM   25  H17         0      63.491  79.832  43.346  1.00  0.00     0.218 HD
ENDBRANCH   8  24
TORSDOF 5
ENDMDL
MODEL 7
REMARK VINA RESULT:       0.0     10.068     12.816
REMARK  5 active torsions:
REMARK  status: ('A' for Active; 'I' for Inactive)
REMARK    1  A    between atoms: C4_4  and  C5_5 
REMARK    2  A    between atoms: C8_8  and  O9_9 
REMARK    3  A    between atoms: C10_11  and  O11_12 
REMARK    4  A    between atoms: C16_18  and  O17_19 
REMARK    5  A    between atoms: C19_22  and  O20_23 
ROOT
HETATM    1  O1          0      69.536  79.041  40.397  1.00  0.00    -0.286 OA
HETATM    2  C2          0      68.699  78.101  40.301  1.00  0.00     0.201 C 
HETATM    3  C3          0      68.687  77.213  39.239  1.00  0.00     0.067 C 
HETATM    4  C4          0      67.692  76.251  39.105  1.00  0.00     0.103 C 
HETATM    5  O13         0      66.751  76.179  40.029  1.00  0.00    -0.307 OA
HETATM    6  C14         0      66.694  77.022  41.037  1.00  0.00     0.107 C 
HETATM    7  C15         0      65.528  77.213  41.765  1.00  0.00     0.049 C 
HETATM    8  C16         0      65.398  78.275  42.652  1.00  0.00     0.093 C 
HETATM    9  C18         0      66.595  78.772  43.153  1.00  0.00     0.048 C 
HETATM   10  C19         0      67.787  78.558  42.474  1.00  0.00     0.096 C 
HETATM   11  C21         0      67.786  77.838  41.311  1.00  0.00     0.084 C 
ENDROOT
BRANCH  10  12
HETATM   12  O20         0      68.871  79.394  42.723  1.00  0.00    -0.359 OA
HETATM   13  H20         0      68.752  80.327  42.598  1.00  0.00     0.218 HD
ENDBRANCH  10  12
BRANCH   4  14
HETATM   14  C5          0      67.387  75.788  37.750  1.00  0.00     0.025 C 
HETATM   15  C6          0      66.144  75.290  37.388  1.00  0.00     0.004 C 
HETATM   16  C7          0      65.659  75.621  36.126  1.00  0.00     0.026 C 
HETATM   17  C8          0      66.439  76.311  35.204  1.00  0.00     0.112 C 
HETATM   18  C10         0      67.808  76.199  35.403  1.00  0.00     0.112 C 
HETATM   19  C12         0      68.270  75.952  36.690  1.00  0.00     0.028 C 
BRANCH  17  20
HETATM   20  O9          0      65.862  77.194  34.309  1.00  0.00    -0.357 OA
HETATM   21  H9          0      65.045  77.027  33.854  1.00  0.00     0.218 HD
ENDBRANCH  17  20
BRANCH  18  22
HETATM   22  O11         0      68.632  76.708  34.408  1.00  0.00    -0.357 OA
HETATM   23  H11         0      68.216  76.950  33.589  1.00  0.00     0.218 HD
ENDBRANCH  18  22
ENDBRANCH   4  14
BRANCH   8  24
HETATM   24  O17         0      64.201  78.993  42.759  1.00  0.00    -0.359 OA
HETATM   25  H17         0      64.039  79.587  43.482  1.00  0.00     0.218 HD
ENDBRANCH   8  24
TORSDOF 5
ENDMDL
MODEL 8
REMARK VINA RESULT:       0.0     12.392     13.834
REMARK  5 active torsions:
REMARK  status: ('A' for Active; 'I' for Inactive)
REMARK    1  A    between atoms: C4_4  and  C5_5 
REMARK    2  A    between atoms: C8_8  and  O9_9 
REMARK    3  A    between atoms: C10_11  and  O11_12 
REMARK    4  A    between atoms: C16_18  and  O17_19 
REMARK    5  A    between atoms: C19_22  and  O20_23 
ROOT
HETATM    1  O1          0      57.529  78.122  48.421  1.00  0.00    -0.286 OA
HETATM    2  C2          0      57.051  77.094  47.868  1.00  0.00     0.201 C 
HETATM    3  C3          0      55.789  77.065  47.300  1.00  0.00     0.067 C 
HETATM    4  C4          0      55.247  75.891  46.789  1.00  0.00     0.103 C 
HETATM    5  O13         0      55.970  74.786  46.834  1.00  0.00    -0.307 OA
HETATM    6  C14         0      57.159  74.750  47.396  1.00  0.00     0.107 C 
HETATM    7  C15         0      57.739  73.557  47.802  1.00  0.00     0.049 C 
HETATM    8  C16         0      58.865  73.544  48.616  1.00  0.00     0.093 C 
HETATM    9  C18         0      59.651  74.688  48.551  1.00  0.00     0.048 C 
HETATM   10  C19         0      59.114  75.888  48.105  1.00  0.00     0.096 C 
HETATM   11  C21         0      57.805  75.941  47.710  1.00  0.00     0.084 C 
ENDROOT
BRANCH  10  12
HETATM   12  O20         0      59.741  77.082  48.445  1.00  0.00    -0.359 OA
HETATM   13  H20         0      60.323  77.082  49.196  1.00  0.00     0.218 HD
ENDBRANCH  10  12
BRANCH   4  14
HETATM   14  C5          0      53.788  75.778  46.774  1.00  0.00     0.025 C 
HETATM   15  C6          0      53.127  74.559  46.822  1.00  0.00     0.004 C 
HETATM   16  C7          0      51.958  74.488  47.573  1.00  0.00     0.026 C 
HETATM   17  C8          0      51.390  75.621  48.147  1.00  0.00     0.112 C 
HETATM   18  C10         0      51.740  76.818  47.536  1.00  0.00     0.112 C 
HETATM   19  C12         0      52.954  76.886  46.864  1.00  0.00     0.028 C 
BRANCH  17  20
HETATM   20  O9          0      50.713  75.542  49.351  1.00  0.00    -0.357 OA
HETATM   21  H9          0      50.351  74.736  49.701  1.00  0.00     0.218 HD
ENDBRANCH  17  20
BRANCH  18  22
HETATM   22  O11         0      51.058  77.955  47.945  1.00  0.00    -0.357 OA
HETATM   23  H11         0      50.651  77.926  48.803  1.00  0.00     0.218 HD
ENDBRANCH  18  22
ENDBRANCH   4  14
BRANCH   8  24
HETATM   24  O17         0      59.004  72.614  49.653  1.00  0.00    -0.359 OA
HETATM   25  H17         0      59.081  71.683  49.481  1.00  0.00     0.218 HD
ENDBRANCH   8  24
TORSDOF 5
ENDMDL
MODEL 9
REMARK VINA RESULT:       0.0      5.632      7.482
REMARK  5 active torsions:
REMARK  status: ('A' for Active; 'I' for Inactive)
REMARK    1  A    between atoms: C4_4  and  C5_5 
REMARK    2  A    between atoms: C8_8  and  O9_9 
REMARK    3  A    between atoms: C10_11  and  O11_12 
REMARK    4  A    between atoms: C16_18  and  O17_19 
REMARK    5  A    between atoms: C19_22  and  O20_23 
ROOT
HETATM    1  O1          0      67.377  83.707  38.016  1.00  0.00    -0.286 OA
HETATM    2  C2          0      66.369  83.963  37.302  1.00  0.00     0.201 C 
HETATM    3  C3          0      65.070  83.847  37.769  1.00  0.00     0.067 C 
HETATM    4  C4          0      63.976  84.036  36.933  1.00  0.00     0.103 C 
HETATM    5  O13         0      64.191  84.354  35.668  1.00  0.00    -0.307 OA
HETATM    6  C14         0      65.403  84.441  35.165  1.00  0.00     0.107 C 
HETATM    7  C15         0      65.634  84.374  33.799  1.00  0.00     0.049 C 
HETATM    8  C16         0      66.917  84.210  33.291  1.00  0.00     0.093 C 
HETATM    9  C18         0      67.939  84.643  34.127  1.00  0.00     0.048 C 
HETATM   10  C19         0      67.728  84.766  35.494  1.00  0.00     0.096 C 
HETATM   11  C21         0      66.499  84.474  36.020  1.00  0.00     0.084 C 
ENDROOT
BRANCH  10  12
HETATM   12  O20         0      68.823  84.767  36.353  1.00  0.00    -0.359 OA
HETATM   13  H20         0      69.411  84.023  36.326  1.00  0.00     0.218 HD
ENDBRANCH  10  12
BRANCH   4  14
HETATM   14  C5          0      62.737  83.340  37.283  1.00  0.00     0.025 C 
HETATM   15  C6          0      61.782  82.983  36.342  1.00  0.00     0.004 C 
HETATM   16  C7          0      61.141  81.759  36.505  1.00  0.00     0.026 C 
HETATM   17  C8          0      61.343  80.976  37.637  1.00  0.00     0.112 C 
HETATM   18  C10         0      61.781  81.673  38.754  1.00  0.00     0.112 C 
HETATM   19  C12         0      62.494  82.851  38.560  1.00  0.00     0.028 C 
BRANCH  17  20
HETATM   20  O9          0      61.306  79.595  37.558  1.00  0.00    -0.357 OA
HETATM   21  H9          0      61.399  79.110  36.747  1.00  0.00     0.218 HD
ENDBRANCH  17  20
BRANCH  18  22
HETATM   22  O11         0      61.816  80.978  39.955  1.00  0.00    -0.357 OA
HETATM   23  H11         0      62.561  80.406  40.098  1.00  0.00     0.218 HD
ENDBRANCH  18  22
ENDBRANCH   4  14
BRANCH   8  24
HETATM   24  O17         0      67.166  83.376  32.195  1.00  0.00    -0.359 OA
HETATM   25  H17         0      67.679  83.670  31.451  1.00  0.00     0.218 HD
ENDBRANCH   8  24
TORSDOF 5
ENDMDL
