MODEL 1
REMARK VINA RESULT:      -1.3      0.000      0.000
REMARK  5 active torsions:
REMARK  status: ('A' for Active; 'I' for Inactive)
REMARK    1  A    between atoms: C4_4  and  C5_5 
REMARK    2  A    between atoms: C8_8  and  O9_9 
REMARK    3  A    between atoms: C10_11  and  O11_12 
REMARK    4  A    between atoms: C16_18  and  O17_19 
REMARK    5  A    between atoms: C19_22  and  O20_23 
ROOT
HETATM    1  O1          0      51.781  86.902  14.627  1.00  0.00    -0.286 OA
HETATM    2  C2          0      51.216  86.598  13.541  1.00  0.00     0.201 C 
HETATM    3  C3          0      51.232  85.315  13.020  1.00  0.00     0.067 C 
HETATM    4  C4          0      50.691  85.028  11.772  1.00  0.00     0.103 C 
HETATM    5  O13         0      50.132  86.007  11.083  1.00  0.00    -0.307 OA
HETATM    6  C14         0      50.123  87.249  11.514  1.00  0.00     0.107 C 
HETATM    7  C15         0      49.912  88.319  10.656  1.00  0.00     0.049 C 
HETATM    8  C16         0      50.155  89.626  11.060  1.00  0.00     0.093 C 
HETATM    9  C18         0      50.087  89.839  12.432  1.00  0.00     0.048 C 
HETATM   10  C19         0      50.246  88.782  13.318  1.00  0.00     0.096 C 
HETATM   11  C21         0      50.455  87.518  12.837  1.00  0.00     0.084 C 
ENDROOT
BRANCH  10  12
HETATM   12  O20         0      50.609  89.048  14.635  1.00  0.00    -0.359 OA
HETATM   13  H20         0      51.058  88.365  15.119  1.00  0.00     0.218 HD
ENDBRANCH  10  12
BRANCH   4  14
HETATM   14  C5          0      51.247  83.884  11.048  1.00  0.00     0.025 C 
HETATM   15  C6          0      52.593  83.548  11.091  1.00  0.00     0.004 C 
HETATM   16  C7          0      52.919  82.196  11.125  1.00  0.00     0.026 C 
HETATM   17  C8          0      51.950  81.208  10.985  1.00  0.00     0.112 C 
HETATM   18  C10         0      50.796  81.617  10.331  1.00  0.00     0.112 C 
HETATM   19  C12         0      50.447  82.962  10.385  1.00  0.00     0.028 C 
BRANCH  17  20
HETATM   20  O9          0      52.073  79.996  11.641  1.00  0.00    -0.357 OA
HETATM   21  H9          0      52.763  79.801  12.264  1.00  0.00     0.218 HD
ENDBRANCH  17  20
BRANCH  18  22
HETATM   22  O11         0      49.879  80.630   9.997  1.00  0.00    -0.357 OA
HETATM   23  H11         0      49.467  80.697   9.144  1.00  0.00     0.218 HD
ENDBRANCH  18  22
ENDBRANCH   4  14
BRANCH   8  24
HETATM   24  O17         0      50.746  90.558  10.200  1.00  0.00    -0.359 OA
HETATM   25  H17         0      51.489  91.084  10.469  1.00  0.00     0.218 HD
ENDBRANCH   8  24
TORSDOF 5
ENDMDL
MODEL 2
REMARK VINA RESULT:      -1.2      2.435      2.661
REMARK  5 active torsions:
REMARK  status: ('A' for Active; 'I' for Inactive)
REMARK    1  A    between atoms: C4_4  and  C5_5 
REMARK    2  A    between atoms: C8_8  and  O9_9 
REMARK    3  A    between atoms: C10_11  and  O11_12 
REMARK    4  A    between atoms: C16_18  and  O17_19 
REMARK    5  A    between atoms: C19_22  and  O20_23 
ROOT
HETATM    1  O1          0      52.392  87.387  14.673  1.00  0.00    -0.286 OA
HETATM    2  C2          0      52.002  87.240  13.482  1.00  0.00     0.201 C 
HETATM    3  C3          0      51.047  86.308  13.115  1.00  0.00     0.067 C 
HETATM    4  C4          0      50.710  86.096  11.783  1.00  0.00     0.103 C 
HETATM    5  O13         0      51.308  86.821  10.854  1.00  0.00    -0.307 OA
HETATM    6  C14         0      52.249  87.692  11.145  1.00  0.00     0.107 C 
HETATM    7  C15         0      53.142  88.151  10.187  1.00  0.00     0.049 C 
HETATM    8  C16         0      54.279  88.865  10.545  1.00  0.00     0.093 C 
HETATM    9  C18         0      54.197  89.529  11.763  1.00  0.00     0.048 C 
HETATM   10  C19         0      53.282  89.125  12.726  1.00  0.00     0.096 C 
HETATM   11  C21         0      52.443  88.076  12.467  1.00  0.00     0.084 C 
ENDROOT
BRANCH  10  12
HETATM   12  O20         0      53.491  89.481  14.054  1.00  0.00    -0.359 OA
HETATM   13  H20         0      54.080  90.205  14.234  1.00  0.00     0.218 HD
ENDBRANCH  10  12
BRANCH   4  14
HETATM   14  C5          0      50.200  84.771  11.424  1.00  0.00     0.025 C 
HETATM   15  C6          0      50.145  84.316  10.114  1.00  0.00     0.004 C 
HETATM   16  C7          0      50.444  82.978   9.884  1.00  0.00     0.026 C 
HETATM   17  C8          0      50.660  82.088  10.930  1.00  0.00     0.112 C 
HETATM   18  C10         0      50.086  82.462  12.138  1.00  0.00     0.112 C 
HETATM   19  C12         0      49.875  83.815  12.377  1.00  0.00     0.028 C 
BRANCH  17  20
HETATM   20  O9          0      51.554  81.040  10.797  1.00  0.00    -0.357 OA
HETATM   21  H9          0      52.498  81.150  10.790  1.00  0.00     0.218 HD
ENDBRANCH  17  20
BRANCH  18  22
HETATM   22  O11         0      50.108  81.526  13.161  1.00  0.00    -0.357 OA
HETATM   23  H11         0      49.288  81.091  13.364  1.00  0.00     0.218 HD
ENDBRANCH  18  22
ENDBRANCH   4  14
BRANCH   8  24
HETATM   24  O17         0      55.505  88.652   9.904  1.00  0.00    -0.359 OA
HETATM   25  H17         0      56.316  89.006  10.248  1.00  0.00     0.218 HD
ENDBRANCH   8  24
TORSDOF 5
ENDMDL
MODEL 3
REMARK VINA RESULT:      -1.2      2.231      2.586
REMARK  5 active torsions:
REMARK  status: ('A' for Active; 'I' for Inactive)
REMARK    1  A    between atoms: C4_4  and  C5_5 
REMARK    2  A    between atoms: C8_8  and  O9_9 
REMARK    3  A    between atoms: C10_11  and  O11_12 
REMARK    4  A    between atoms: C16_18  and  O17_19 
REMARK    5  A    between atoms: C19_22  and  O20_23 
ROOT
HETATM    1  O1          0      53.136  85.407  15.402  1.00  0.00    -0.286 OA
HETATM    2  C2          0      52.418  85.615  14.386  1.00  0.00     0.201 C 
HETATM    3  C3          0      51.445  84.726  13.960  1.00  0.00     0.067 C 
HETATM    4  C4          0      50.739  84.930  12.780  1.00  0.00     0.103 C 
HETATM    5  O13         0      50.995  86.011  12.066  1.00  0.00    -0.307 OA
HETATM    6  C14         0      51.934  86.867  12.405  1.00  0.00     0.107 C 
HETATM    7  C15         0      52.477  87.758  11.490  1.00  0.00     0.049 C 
HETATM    8  C16         0      53.631  88.476  11.779  1.00  0.00     0.093 C 
HETATM    9  C18         0      53.882  88.664  13.133  1.00  0.00     0.048 C 
HETATM   10  C19         0      53.317  87.819  14.079  1.00  0.00     0.096 C 
HETATM   11  C21         0      52.493  86.804  13.677  1.00  0.00     0.084 C 
ENDROOT
BRANCH  10  12
HETATM   12  O20         0      53.894  87.730  15.342  1.00  0.00    -0.359 OA
HETATM   13  H20         0      53.655  88.385  15.988  1.00  0.00     0.218 HD
ENDBRANCH  10  12
BRANCH   4  14
HETATM   14  C5          0      50.214  83.744  12.101  1.00  0.00     0.025 C 
HETATM   15  C6          0      50.109  83.653  10.720  1.00  0.00     0.004 C 
HETATM   16  C7          0      50.397  82.426  10.132  1.00  0.00     0.026 C 
HETATM   17  C8          0      50.650  81.292  10.896  1.00  0.00     0.112 C 
HETATM   18  C10         0      50.121  81.328  12.179  1.00  0.00     0.112 C 
HETATM   19  C12         0      49.922  82.567  12.777  1.00  0.00     0.028 C 
BRANCH  17  20
HETATM   20  O9          0      51.537  80.325  10.457  1.00  0.00    -0.357 OA
HETATM   21  H9          0      52.451  80.496  10.262  1.00  0.00     0.218 HD
ENDBRANCH  17  20
BRANCH  18  22
HETATM   22  O11         0      50.180  80.153  12.916  1.00  0.00    -0.357 OA
HETATM   23  H11         0      50.425  79.364  12.447  1.00  0.00     0.218 HD
ENDBRANCH  18  22
ENDBRANCH   4  14
BRANCH   8  24
HETATM   24  O17         0      54.620  88.687  10.812  1.00  0.00    -0.359 OA
HETATM   25  H17         0      54.544  89.378  10.163  1.00  0.00     0.218 HD
ENDBRANCH   8  24
TORSDOF 5
ENDMDL
MODEL 4
REMARK VINA RESULT:      -1.0      1.798      2.297
REMARK  5 active torsions:
REMARK  status: ('A' for Active; 'I' for Inactive)
REMARK    1  A    between atoms: C4_4  and  C5_5 
REMARK    2  A    between atoms: C8_8  and  O9_9 
REMARK    3  A    between atoms: C10_11  and  O11_12 
REMARK    4  A    between atoms: C16_18  and  O17_19 
REMARK    5  A    between atoms: C19_22  and  O20_23 
ROOT
HETATM    1  O1          0      51.229  86.503  16.647  1.00  0.00    -0.286 OA
HETATM    2  C2          0      50.752  86.151  15.533  1.00  0.00     0.201 C 
HETATM    3  C3          0      50.640  84.826  15.149  1.00  0.00     0.067 C 
HETATM    4  C4          0      50.206  84.470  13.877  1.00  0.00     0.103 C 
HETATM    5  O13         0      49.875  85.427  13.028  1.00  0.00    -0.307 OA
HETATM    6  C14         0      49.997  86.701  13.329  1.00  0.00     0.107 C 
HETATM    7  C15         0      50.042  87.683  12.350  1.00  0.00     0.049 C 
HETATM    8  C16         0      50.423  88.985  12.649  1.00  0.00     0.093 C 
HETATM    9  C18         0      50.234  89.362  13.973  1.00  0.00     0.048 C 
HETATM   10  C19         0      50.138  88.404  14.973  1.00  0.00     0.096 C 
HETATM   11  C21         0      50.215  87.076  14.651  1.00  0.00     0.084 C 
ENDROOT
BRANCH  10  12
HETATM   12  O20         0      50.387  88.770  16.292  1.00  0.00    -0.359 OA
HETATM   13  H20         0      49.946  89.540  16.631  1.00  0.00     0.218 HD
ENDBRANCH  10  12
BRANCH   4  14
HETATM   14  C5          0      50.669  83.186  13.346  1.00  0.00     0.025 C 
HETATM   15  C6          0      49.907  82.028  13.408  1.00  0.00     0.004 C 
HETATM   16  C7          0      49.952  81.169  12.315  1.00  0.00     0.026 C 
HETATM   17  C8          0      50.824  81.383  11.253  1.00  0.00     0.112 C 
HETATM   18  C10         0      51.938  82.152  11.564  1.00  0.00     0.112 C 
HETATM   19  C12         0      51.839  83.064  12.608  1.00  0.00     0.028 C 
BRANCH  17  20
HETATM   20  O9          0      50.473  81.027   9.963  1.00  0.00    -0.357 OA
HETATM   21  H9          0      50.735  81.514   9.191  1.00  0.00     0.218 HD
ENDBRANCH  17  20
BRANCH  18  22
HETATM   22  O11         0      52.931  82.238  10.600  1.00  0.00    -0.357 OA
HETATM   23  H11         0      53.713  81.716  10.739  1.00  0.00     0.218 HD
ENDBRANCH  18  22
ENDBRANCH   4  14
BRANCH   8  24
HETATM   24  O17         0      51.236  89.724  11.783  1.00  0.00    -0.359 OA
HETATM   25  H17         0      52.142  89.917  11.991  1.00  0.00     0.218 HD
ENDBRANCH   8  24
TORSDOF 5
ENDMDL
MODEL 5
REMARK VINA RESULT:      -0.9      2.953      5.899
REMARK  5 active torsions:
REMARK  status: ('A' for Active; 'I' for Inactive)
REMARK    1  A    between atoms: C4_4  and  C5_5 
REMARK    2  A    between atoms: C8_8  and  O9_9 
REMARK    3  A    between atoms: C10_11  and  O11_12 
REMARK    4  A    between atoms: C16_18  and  O17_19 
REMARK    5  A    between atoms: C19_22  and  O20_23 
ROOT
HETATM    1  O1          0      50.574  88.597  12.686  1.00  0.00    -0.286 OA
HETATM    2  C2          0      50.332  87.439  13.126  1.00  0.00     0.201 C 
HETATM    3  C3          0      50.273  87.147  14.478  1.00  0.00     0.067 C 
HETATM    4  C4          0      50.107  85.845  14.935  1.00  0.00     0.103 C 
HETATM    5  O13         0      49.984  84.872  14.050  1.00  0.00    -0.307 OA
HETATM    6  C14         0      50.070  85.089  12.756  1.00  0.00     0.107 C 
HETATM    7  C15         0      50.342  84.066  11.859  1.00  0.00     0.049 C 
HETATM    8  C16         0      50.683  84.335  10.539  1.00  0.00     0.093 C 
HETATM    9  C18         0      50.229  85.554  10.052  1.00  0.00     0.048 C 
HETATM   10  C19         0      49.903  86.585  10.924  1.00  0.00     0.096 C 
HETATM   11  C21         0      50.014  86.393  12.274  1.00  0.00     0.084 C 
ENDROOT
BRANCH  10  12
HETATM   12  O20         0      49.878  87.893  10.451  1.00  0.00    -0.359 OA
HETATM   13  H20         0      49.223  88.119   9.802  1.00  0.00     0.218 HD
ENDBRANCH  10  12
BRANCH   4  14
HETATM   14  C5          0      50.640  85.528  16.261  1.00  0.00     0.025 C 
HETATM   15  C6          0      51.205  84.299  16.570  1.00  0.00     0.004 C 
HETATM   16  C7          0      52.317  84.293  17.406  1.00  0.00     0.026 C 
HETATM   17  C8          0      52.773  85.453  18.023  1.00  0.00     0.112 C 
HETATM   18  C10         0      51.815  86.448  18.166  1.00  0.00     0.112 C 
HETATM   19  C12         0      50.758  86.482  17.264  1.00  0.00     0.028 C 
BRANCH  17  20
HETATM   20  O9          0      54.122  85.644  18.265  1.00  0.00    -0.357 OA
HETATM   21  H9          0      54.482  85.835  19.123  1.00  0.00     0.218 HD
ENDBRANCH  17  20
BRANCH  18  22
HETATM   22  O11         0      52.162  87.547  18.939  1.00  0.00    -0.357 OA
HETATM   23  H11         0      52.464  88.320  18.476  1.00  0.00     0.218 HD
ENDBRANCH  18  22
ENDBRANCH   4  14
BRANCH   8  24
HETATM   24  O17         0      51.677  83.603   9.879  1.00  0.00    -0.359 OA
HETATM   25  H17         0      52.107  83.935   9.100  1.00  0.00     0.218 HD
ENDBRANCH   8  24
TORSDOF 5
ENDMDL
MODEL 6
REMARK VINA RESULT:      -0.9      3.069      4.041
REMARK  5 active torsions:
REMARK  status: ('A' for Active; 'I' for Inactive)
REMARK    1  A    between atoms: C4_4  and  C5_5 
REMARK    2  A    between atoms: C8_8  and  O9_9 
REMARK    3  A    between atoms: C10_11  and  O11_12 
REMARK    4  A    between atoms: C16_18  and  O17_19 
REMARK    5  A    between atoms: C19_22  and  O20_23 
ROOT
HETATM    1  O1          0      53.541  83.862  16.307  1.00  0.00    -0.286 OA
HETATM    2  C2          0      52.369  84.128  15.922  1.00  0.00     0.201 C 
HETATM    3  C3          0      51.666  83.320  15.044  1.00  0.00     0.067 C 
HETATM    4  C4          0      50.417  83.688  14.557  1.00  0.00     0.103 C 
HETATM    5  O13         0      49.888  84.829  14.964  1.00  0.00    -0.307 OA
HETATM    6  C14         0      50.529  85.650  15.767  1.00  0.00     0.107 C 
HETATM    7  C15         0      50.178  86.987  15.877  1.00  0.00     0.049 C 
HETATM    8  C16         0      51.004  87.900  16.522  1.00  0.00     0.093 C 
HETATM    9  C18         0      51.864  87.349  17.464  1.00  0.00     0.048 C 
HETATM   10  C19         0      52.200  86.003  17.412  1.00  0.00     0.096 C 
HETATM   11  C21         0      51.667  85.208  16.433  1.00  0.00     0.084 C 
ENDROOT
BRANCH  10  12
HETATM   12  O20         0      53.355  85.565  18.051  1.00  0.00    -0.359 OA
HETATM   13  H20         0      53.379  84.667  18.361  1.00  0.00     0.218 HD
ENDBRANCH  10  12
BRANCH   4  14
HETATM   14  C5          0      50.024  83.155  13.252  1.00  0.00     0.025 C 
HETATM   15  C6          0      49.894  83.950  12.122  1.00  0.00     0.004 C 
HETATM   16  C7          0      50.315  83.419  10.908  1.00  0.00     0.026 C 
HETATM   17  C8          0      50.726  82.095  10.794  1.00  0.00     0.112 C 
HETATM   18  C10         0      50.232  81.248  11.777  1.00  0.00     0.112 C 
HETATM   19  C12         0      49.898  81.793  13.011  1.00  0.00     0.028 C 
BRANCH  17  20
HETATM   20  O9          0      51.713  81.734   9.894  1.00  0.00    -0.357 OA
HETATM   21  H9          0      51.687  80.940   9.373  1.00  0.00     0.218 HD
ENDBRANCH  17  20
BRANCH  18  22
HETATM   22  O11         0      50.455  79.889  11.606  1.00  0.00    -0.357 OA
HETATM   23  H11         0      50.105  79.492  10.816  1.00  0.00     0.218 HD
ENDBRANCH  18  22
ENDBRANCH   4  14
BRANCH   8  24
HETATM   24  O17         0      51.190  89.194  16.023  1.00  0.00    -0.359 OA
HETATM   25  H17         0      50.456  89.764  15.827  1.00  0.00     0.218 HD
ENDBRANCH   8  24
TORSDOF 5
ENDMDL
MODEL 7
REMARK VINA RESULT:      -0.9      3.525      5.365
REMARK  5 active torsions:
REMARK  status: ('A' for Active; 'I' for Inactive)
REMARK    1  A    between atoms: C4_4  and  C5_5 
REMARK    2  A    between atoms: C8_8  and  O9_9 
REMARK    3  A    between atoms: C10_11  and  O11_12 
REMARK    4  A    between atoms: C16_18  and  O17_19 
REMARK    5  A    between atoms: C19_22  and  O20_23 
ROOT
HETATM    1  O1          0      54.350  85.206  16.348  1.00  0.00    -0.286 OA
HETATM    2  C2          0      54.111  85.158  15.110  1.00  0.00     0.201 C 
HETATM    3  C3          0      52.826  85.140  14.594  1.00  0.00     0.067 C 
HETATM    4  C4          0      52.589  84.983  13.233  1.00  0.00     0.103 C 
HETATM    5  O13         0      53.623  84.870  12.418  1.00  0.00    -0.307 OA
HETATM    6  C14         0      54.862  84.843  12.859  1.00  0.00     0.107 C 
HETATM    7  C15         0      55.900  84.335  12.092  1.00  0.00     0.049 C 
HETATM    8  C16         0      57.147  84.074  12.648  1.00  0.00     0.093 C 
HETATM    9  C18         0      57.448  84.812  13.786  1.00  0.00     0.048 C 
HETATM   10  C19         0      56.436  85.375  14.551  1.00  0.00     0.096 C 
HETATM   11  C21         0      55.131  85.215  14.172  1.00  0.00     0.084 C 
ENDROOT
BRANCH  10  12
HETATM   12  O20         0      56.693  85.718  15.874  1.00  0.00    -0.359 OA
HETATM   13  H20         0      57.225  86.488  16.039  1.00  0.00     0.218 HD
ENDBRANCH  10  12
BRANCH   4  14
HETATM   14  C5          0      51.313  84.384  12.840  1.00  0.00     0.025 C 
HETATM   15  C6          0      50.528  84.891  11.815  1.00  0.00     0.004 C 
HETATM   16  C7          0      49.875  83.980  10.991  1.00  0.00     0.026 C 
HETATM   17  C8          0      49.891  82.615  11.257  1.00  0.00     0.112 C 
HETATM   18  C10         0      50.137  82.285  12.583  1.00  0.00     0.112 C 
HETATM   19  C12         0      50.865  83.177  13.361  1.00  0.00     0.028 C 
BRANCH  17  20
HETATM   20  O9          0      49.875  81.692  10.226  1.00  0.00    -0.357 OA
HETATM   21  H9          0      49.264  80.965  10.178  1.00  0.00     0.218 HD
ENDBRANCH  17  20
BRANCH  18  22
HETATM   22  O11         0      49.978  80.953  12.939  1.00  0.00    -0.357 OA
HETATM   23  H11         0      49.178  80.525  12.657  1.00  0.00     0.218 HD
ENDBRANCH  18  22
ENDBRANCH   4  14
BRANCH   8  24
HETATM   24  O17         0      57.879  82.935  12.294  1.00  0.00    -0.359 OA
HETATM   25  H17         0      58.352  82.881  11.472  1.00  0.00     0.218 HD
ENDBRANCH   8  24
TORSDOF 5
ENDMDL
MODEL 8
REMARK VINA RESULT:      -0.9      4.191      6.271
REMARK  5 active torsions:
REMARK  status: ('A' for Active; 'I' for Inactive)
REMARK    1  A    between atoms: C4_4  and  C5_5 
REMARK    2  A    between atoms: C8_8  and  O9_9 
REMARK    3  A    between atoms: C10_11  and  O11_12 
REMARK    4  A    between atoms: C16_18  and  O17_19 
REMARK    5  A    between atoms: C19_22  and  O20_23 
ROOT
HETATM    1  O1          0      52.225  85.579  13.652  1.00  0.00    -0.286 OA
HETATM    2  C2          0      51.830  84.441  14.027  1.00  0.00     0.201 C 
HETATM    3  C3          0      52.242  83.856  15.212  1.00  0.00     0.067 C 
HETATM    4  C4          0      51.872  82.560  15.552  1.00  0.00     0.103 C 
HETATM    5  O13         0      51.092  81.885  14.726  1.00  0.00    -0.307 OA
HETATM    6  C14         0      50.703  82.379  13.571  1.00  0.00     0.107 C 
HETATM    7  C15         0      50.240  81.566  12.547  1.00  0.00     0.049 C 
HETATM    8  C16         0      50.074  82.054  11.257  1.00  0.00     0.093 C 
HETATM    9  C18         0      49.876  83.426  11.169  1.00  0.00     0.048 C 
HETATM   10  C19         0      50.285  84.265  12.197  1.00  0.00     0.096 C 
HETATM   11  C21         0      50.874  83.735  13.313  1.00  0.00     0.084 C 
ENDROOT
BRANCH  10  12
HETATM   12  O20         0      50.487  85.616  11.933  1.00  0.00    -0.359 OA
HETATM   13  H20         0      51.126  85.850  11.270  1.00  0.00     0.218 HD
ENDBRANCH  10  12
BRANCH   4  14
HETATM   14  C5          0      52.772  81.817  16.437  1.00  0.00     0.025 C 
HETATM   15  C6          0      52.959  80.446  16.340  1.00  0.00     0.004 C 
HETATM   16  C7          0      54.244  79.955  16.547  1.00  0.00     0.026 C 
HETATM   17  C8          0      55.281  80.781  16.968  1.00  0.00     0.112 C 
HETATM   18  C10         0      54.874  81.932  17.629  1.00  0.00     0.112 C 
HETATM   19  C12         0      53.617  82.450  17.340  1.00  0.00     0.028 C 
BRANCH  17  20
HETATM   20  O9          0      56.583  80.550  16.559  1.00  0.00    -0.357 OA
HETATM   21  H9          0      57.050  81.107  15.948  1.00  0.00     0.218 HD
ENDBRANCH  17  20
BRANCH  18  22
HETATM   22  O11         0      55.864  82.693  18.234  1.00  0.00    -0.357 OA
HETATM   23  H11         0      56.667  82.824  17.742  1.00  0.00     0.218 HD
ENDBRANCH  18  22
ENDBRANCH   4  14
BRANCH   8  24
HETATM   24  O17         0      50.417  81.287  10.137  1.00  0.00    -0.359 OA
HETATM   25  H17         0      49.905  80.532   9.874  1.00  0.00     0.218 HD
ENDBRANCH   8  24
TORSDOF 5
ENDMDL
MODEL 9
REMARK VINA RESULT:      -0.8      2.711      4.589
REMARK  5 active torsions:
REMARK  status: ('A' for Active; 'I' for Inactive)
REMARK    1  A    between atoms: C4_4  and  C5_5 
REMARK    2  A    between atoms: C8_8  and  O9_9 
REMARK    3  A    between atoms: C10_11  and  O11_12 
REMARK    4  A    between atoms: C16_18  and  O17_19 
REMARK    5  A    between atoms: C19_22  and  O20_23 
ROOT
HETATM    1  O1          0      52.221  87.613  13.988  1.00  0.00    -0.286 OA
HETATM    2  C2          0      52.403  86.365  13.975  1.00  0.00     0.201 C 
HETATM    3  C3          0      52.080  85.571  12.888  1.00  0.00     0.067 C 
HETATM    4  C4          0      52.195  84.186  12.937  1.00  0.00     0.103 C 
HETATM    5  O13         0      52.643  83.625  14.046  1.00  0.00    -0.307 OA
HETATM    6  C14         0      52.928  84.330  15.120  1.00  0.00     0.107 C 
HETATM    7  C15         0      53.007  83.747  16.376  1.00  0.00     0.049 C 
HETATM    8  C16         0      53.054  84.522  17.529  1.00  0.00     0.093 C 
HETATM    9  C18         0      53.545  85.810  17.351  1.00  0.00     0.048 C 
HETATM   10  C19         0      53.524  86.406  16.098  1.00  0.00     0.096 C 
HETATM   11  C21         0      53.032  85.713  15.025  1.00  0.00     0.084 C 
ENDROOT
BRANCH  10  12
HETATM   12  O20         0      53.596  87.792  16.002  1.00  0.00    -0.359 OA
HETATM   13  H20         0      52.985  88.230  15.422  1.00  0.00     0.218 HD
ENDBRANCH  10  12
BRANCH   4  14
HETATM   14  C5          0      51.316  83.410  12.060  1.00  0.00     0.025 C 
HETATM   15  C6          0      51.290  83.577  10.683  1.00  0.00     0.004 C 
HETATM   16  C7          0      51.140  82.438   9.898  1.00  0.00     0.026 C 
HETATM   17  C8          0      50.891  81.192  10.462  1.00  0.00     0.112 C 
HETATM   18  C10         0      50.319  81.231  11.726  1.00  0.00     0.112 C 
HETATM   19  C12         0      50.555  82.345  12.523  1.00  0.00     0.028 C 
BRANCH  17  20
HETATM   20  O9          0      51.381  80.038   9.875  1.00  0.00    -0.357 OA
HETATM   21  H9          0      51.884  80.028   9.069  1.00  0.00     0.218 HD
ENDBRANCH  17  20
BRANCH  18  22
HETATM   22  O11         0      49.877  80.026  12.254  1.00  0.00    -0.357 OA
HETATM   23  H11         0      49.847  79.283  11.662  1.00  0.00     0.218 HD
ENDBRANCH  18  22
ENDBRANCH   4  14
BRANCH   8  24
HETATM   24  O17         0      52.355  84.154  18.684  1.00  0.00    -0.359 OA
HETATM   25  H17         0      51.449  83.873  18.650  1.00  0.00     0.218 HD
ENDBRANCH   8  24
TORSDOF 5
ENDMDL
