MODEL 1
REMARK VINA RESULT:      -3.0      0.000      0.000
REMARK  5 active torsions:
REMARK  status: ('A' for Active; 'I' for Inactive)
REMARK    1  A    between atoms: C4_4  and  C5_5 
REMARK    2  A    between atoms: C8_8  and  O9_9 
REMARK    3  A    between atoms: C10_11  and  O11_12 
REMARK    4  A    between atoms: C16_18  and  O17_19 
REMARK    5  A    between atoms: C19_22  and  O20_23 
ROOT
HETATM    1  O1          0      30.190  36.605 -22.994  1.00  0.00    -0.286 OA
HETATM    2  C2          0      31.078  37.438 -22.666  1.00  0.00     0.201 C 
HETATM    3  C3          0      32.362  37.409 -23.183  1.00  0.00     0.067 C 
HETATM    4  C4          0      33.350  38.275 -22.729  1.00  0.00     0.103 C 
HETATM    5  O13         0      33.041  39.157 -21.795  1.00  0.00    -0.307 OA
HETATM    6  C14         0      31.848  39.203 -21.244  1.00  0.00     0.107 C 
HETATM    7  C15         0      31.631  39.825 -20.023  1.00  0.00     0.049 C 
HETATM    8  C16         0      30.440  39.653 -19.328  1.00  0.00     0.093 C 
HETATM    9  C18         0      29.346  39.308 -20.113  1.00  0.00     0.048 C 
HETATM   10  C19         0      29.529  38.727 -21.361  1.00  0.00     0.096 C 
HETATM   11  C21         0      30.796  38.507 -21.828  1.00  0.00     0.084 C 
ENDROOT
BRANCH  10  12
HETATM   12  O20         0      28.487  38.003 -21.933  1.00  0.00    -0.359 OA
HETATM   13  H20         0      27.776  37.723 -21.368  1.00  0.00     0.218 HD
ENDBRANCH  10  12
BRANCH   4  14
HETATM   14  C5          0      34.739  37.824 -22.841  1.00  0.00     0.025 C 
HETATM   15  C6          0      35.224  37.151 -23.953  1.00  0.00     0.004 C 
HETATM   16  C7          0      36.515  37.452 -24.376  1.00  0.00     0.026 C 
HETATM   17  C8          0      37.345  38.291 -23.643  1.00  0.00     0.112 C 
HETATM   18  C10         0      37.027  38.389 -22.295  1.00  0.00     0.112 C 
HETATM   19  C12         0      35.710  38.167 -21.909  1.00  0.00     0.028 C 
BRANCH  17  20
HETATM   20  O9          0      38.265  39.108 -24.276  1.00  0.00    -0.357 OA
HETATM   21  H9          0      39.021  39.488 -23.842  1.00  0.00     0.218 HD
ENDBRANCH  17  20
BRANCH  18  22
HETATM   22  O11         0      37.930  39.060 -21.482  1.00  0.00    -0.357 OA
HETATM   23  H11         0      38.711  38.584 -21.223  1.00  0.00     0.218 HD
ENDBRANCH  18  22
ENDBRANCH   4  14
BRANCH   8  24
HETATM   24  O17         0      30.422  39.505 -17.937  1.00  0.00    -0.359 OA
HETATM   25  H17         0      30.275  38.661 -17.526  1.00  0.00     0.218 HD
ENDBRANCH   8  24
TORSDOF 5
ENDMDL
MODEL 2
REMARK VINA RESULT:      -2.9      1.401      1.810
REMARK  5 active torsions:
REMARK  status: ('A' for Active; 'I' for Inactive)
REMARK    1  A    between atoms: C4_4  and  C5_5 
REMARK    2  A    between atoms: C8_8  and  O9_9 
REMARK    3  A    between atoms: C10_11  and  O11_12 
REMARK    4  A    between atoms: C16_18  and  O17_19 
REMARK    5  A    between atoms: C19_22  and  O20_23 
ROOT
HETATM    1  O1          0      31.445  37.074 -24.037  1.00  0.00    -0.286 OA
HETATM    2  C2          0      32.070  37.825 -23.239  1.00  0.00     0.201 C 
HETATM    3  C3          0      33.452  37.850 -23.157  1.00  0.00     0.067 C 
HETATM    4  C4          0      34.112  38.610 -22.198  1.00  0.00     0.103 C 
HETATM    5  O13         0      33.394  39.339 -21.362  1.00  0.00    -0.307 OA
HETATM    6  C14         0      32.079  39.323 -21.372  1.00  0.00     0.107 C 
HETATM    7  C15         0      31.334  39.747 -20.281  1.00  0.00     0.049 C 
HETATM    8  C16         0      29.971  39.493 -20.195  1.00  0.00     0.093 C 
HETATM    9  C18         0      29.331  39.302 -21.414  1.00  0.00     0.048 C 
HETATM   10  C19         0      30.053  38.923 -22.537  1.00  0.00     0.096 C 
HETATM   11  C21         0      31.408  38.752 -22.448  1.00  0.00     0.084 C 
ENDROOT
BRANCH  10  12
HETATM   12  O20         0      29.389  38.322 -23.602  1.00  0.00    -0.359 OA
HETATM   13  H20         0      28.628  38.765 -23.959  1.00  0.00     0.218 HD
ENDBRANCH  10  12
BRANCH   4  14
HETATM   14  C5          0      35.436  38.152 -21.775  1.00  0.00     0.025 C 
HETATM   15  C6          0      36.484  37.960 -22.664  1.00  0.00     0.004 C 
HETATM   16  C7          0      37.760  38.320 -22.243  1.00  0.00     0.026 C 
HETATM   17  C8          0      38.009  38.731 -20.938  1.00  0.00     0.112 C 
HETATM   18  C10         0      37.079  38.293 -20.005  1.00  0.00     0.112 C 
HETATM   19  C12         0      35.787  38.021 -20.438  1.00  0.00     0.028 C 
BRANCH  17  20
HETATM   20  O9          0      38.987  39.671 -20.665  1.00  0.00    -0.357 OA
HETATM   21  H9          0      39.874  39.623 -21.002  1.00  0.00     0.218 HD
ENDBRANCH  17  20
BRANCH  18  22
HETATM   22  O11         0      37.379  38.513 -18.668  1.00  0.00    -0.357 OA
HETATM   23  H11         0      37.053  39.318 -18.281  1.00  0.00     0.218 HD
ENDBRANCH  18  22
ENDBRANCH   4  14
BRANCH   8  24
HETATM   24  O17         0      29.372  39.126 -18.984  1.00  0.00    -0.359 OA
HETATM   25  H17         0      29.386  39.699 -18.227  1.00  0.00     0.218 HD
ENDBRANCH   8  24
TORSDOF 5
ENDMDL
MODEL 3
REMARK VINA RESULT:      -2.8      2.370      4.097
REMARK  5 active torsions:
REMARK  status: ('A' for Active; 'I' for Inactive)
REMARK    1  A    between atoms: C4_4  and  C5_5 
REMARK    2  A    between atoms: C8_8  and  O9_9 
REMARK    3  A    between atoms: C10_11  and  O11_12 
REMARK    4  A    between atoms: C16_18  and  O17_19 
REMARK    5  A    between atoms: C19_22  and  O20_23 
ROOT
HETATM    1  O1          0      32.170  39.593 -21.114  1.00  0.00    -0.286 OA
HETATM    2  C2          0      32.981  38.808 -21.677  1.00  0.00     0.201 C 
HETATM    3  C3          0      34.101  38.302 -21.040  1.00  0.00     0.067 C 
HETATM    4  C4          0      35.032  37.521 -21.715  1.00  0.00     0.103 C 
HETATM    5  O13         0      34.824  37.244 -22.990  1.00  0.00    -0.307 OA
HETATM    6  C14         0      33.797  37.730 -23.652  1.00  0.00     0.107 C 
HETATM    7  C15         0      33.780  37.784 -25.038  1.00  0.00     0.049 C 
HETATM    8  C16         0      32.820  38.522 -25.720  1.00  0.00     0.093 C 
HETATM    9  C18         0      31.636  38.730 -25.023  1.00  0.00     0.048 C 
HETATM   10  C19         0      31.607  38.637 -23.639  1.00  0.00     0.096 C 
HETATM   11  C21         0      32.749  38.322 -22.955  1.00  0.00     0.084 C 
ENDROOT
BRANCH  10  12
HETATM   12  O20         0      30.576  39.256 -22.937  1.00  0.00    -0.359 OA
HETATM   13  H20         0      30.809  39.910 -22.289  1.00  0.00     0.218 HD
ENDBRANCH  10  12
BRANCH   4  14
HETATM   14  C5          0      36.407  37.534 -21.212  1.00  0.00     0.025 C 
HETATM   15  C6          0      37.512  37.383 -22.038  1.00  0.00     0.004 C 
HETATM   16  C7          0      38.639  38.147 -21.753  1.00  0.00     0.026 C 
HETATM   17  C8          0      38.717  38.933 -20.609  1.00  0.00     0.112 C 
HETATM   18  C10         0      37.879  38.537 -19.574  1.00  0.00     0.112 C 
HETATM   19  C12         0      36.715  37.848 -19.895  1.00  0.00     0.028 C 
BRANCH  17  20
HETATM   20  O9          0      39.420  40.125 -20.614  1.00  0.00    -0.357 OA
HETATM   21  H9          0      39.052  40.956 -20.335  1.00  0.00     0.218 HD
ENDBRANCH  17  20
BRANCH  18  22
HETATM   22  O11         0      38.052  39.166 -18.350  1.00  0.00    -0.357 OA
HETATM   23  H11         0      37.726  40.055 -18.274  1.00  0.00     0.218 HD
ENDBRANCH  18  22
ENDBRANCH   4  14
BRANCH   8  24
HETATM   24  O17         0      33.146  39.270 -26.857  1.00  0.00    -0.359 OA
HETATM   25  H17         0      33.285  40.209 -26.813  1.00  0.00     0.218 HD
ENDBRANCH   8  24
TORSDOF 5
ENDMDL
MODEL 4
REMARK VINA RESULT:      -2.6      2.116      3.412
REMARK  5 active torsions:
REMARK  status: ('A' for Active; 'I' for Inactive)
REMARK    1  A    between atoms: C4_4  and  C5_5 
REMARK    2  A    between atoms: C8_8  and  O9_9 
REMARK    3  A    between atoms: C10_11  and  O11_12 
REMARK    4  A    between atoms: C16_18  and  O17_19 
REMARK    5  A    between atoms: C19_22  and  O20_23 
ROOT
HETATM    1  O1          0      33.930  37.154 -25.169  1.00  0.00    -0.286 OA
HETATM    2  C2          0      34.005  37.757 -24.063  1.00  0.00     0.201 C 
HETATM    3  C3          0      35.207  37.993 -23.417  1.00  0.00     0.067 C 
HETATM    4  C4          0      35.253  38.567 -22.151  1.00  0.00     0.103 C 
HETATM    5  O13         0      34.119  38.911 -21.568  1.00  0.00    -0.307 OA
HETATM    6  C14         0      32.949  38.675 -22.122  1.00  0.00     0.107 C 
HETATM    7  C15         0      31.779  38.657 -21.377  1.00  0.00     0.049 C 
HETATM    8  C16         0      30.593  38.161 -21.907  1.00  0.00     0.093 C 
HETATM    9  C18         0      30.509  38.200 -23.294  1.00  0.00     0.048 C 
HETATM   10  C19         0      31.659  38.266 -24.068  1.00  0.00     0.096 C 
HETATM   11  C21         0      32.885  38.310 -23.462  1.00  0.00     0.084 C 
ENDROOT
BRANCH  10  12
HETATM   12  O20         0      31.605  37.872 -25.402  1.00  0.00    -0.359 OA
HETATM   13  H20         0      32.064  38.401 -26.042  1.00  0.00     0.218 HD
ENDBRANCH  10  12
BRANCH   4  14
HETATM   14  C5          0      36.408  38.243 -21.311  1.00  0.00     0.025 C 
HETATM   15  C6          0      37.717  38.369 -21.752  1.00  0.00     0.004 C 
HETATM   16  C7          0      38.662  38.834 -20.842  1.00  0.00     0.026 C 
HETATM   17  C8          0      38.345  39.041 -19.504  1.00  0.00     0.112 C 
HETATM   18  C10         0      37.256  38.311 -19.046  1.00  0.00     0.112 C 
HETATM   19  C12         0      36.283  37.931 -19.963  1.00  0.00     0.028 C 
BRANCH  17  20
HETATM   20  O9          0      38.951  40.053 -18.780  1.00  0.00    -0.357 OA
HETATM   21  H9          0      39.833  39.998 -18.432  1.00  0.00     0.218 HD
ENDBRANCH  17  20
BRANCH  18  22
HETATM   22  O11         0      37.014  38.333 -17.680  1.00  0.00    -0.357 OA
HETATM   23  H11         0      36.286  38.867 -17.381  1.00  0.00     0.218 HD
ENDBRANCH  18  22
ENDBRANCH   4  14
BRANCH   8  24
HETATM   24  O17         0      29.719  37.385 -21.138  1.00  0.00    -0.359 OA
HETATM   25  H17         0      28.831  37.669 -20.953  1.00  0.00     0.218 HD
ENDBRANCH   8  24
TORSDOF 5
ENDMDL
MODEL 5
REMARK VINA RESULT:      -2.6      1.195      1.619
REMARK  5 active torsions:
REMARK  status: ('A' for Active; 'I' for Inactive)
REMARK    1  A    between atoms: C4_4  and  C5_5 
REMARK    2  A    between atoms: C8_8  and  O9_9 
REMARK    3  A    between atoms: C10_11  and  O11_12 
REMARK    4  A    between atoms: C16_18  and  O17_19 
REMARK    5  A    between atoms: C19_22  and  O20_23 
ROOT
HETATM    1  O1          0      31.030  35.984 -22.032  1.00  0.00    -0.286 OA
HETATM    2  C2          0      31.643  37.067 -21.826  1.00  0.00     0.201 C 
HETATM    3  C3          0      32.976  37.249 -22.151  1.00  0.00     0.067 C 
HETATM    4  C4          0      33.655  38.416 -21.820  1.00  0.00     0.103 C 
HETATM    5  O13         0      32.996  39.378 -21.198  1.00  0.00    -0.307 OA
HETATM    6  C14         0      31.741  39.243 -20.833  1.00  0.00     0.107 C 
HETATM    7  C15         0      31.173  40.047 -19.856  1.00  0.00     0.049 C 
HETATM    8  C16         0      29.939  39.740 -19.295  1.00  0.00     0.093 C 
HETATM    9  C18         0      29.109  38.962 -20.093  1.00  0.00     0.048 C 
HETATM   10  C19         0      29.639  38.180 -21.111  1.00  0.00     0.096 C 
HETATM   11  C21         0      30.988  38.189 -21.341  1.00  0.00     0.084 C 
ENDROOT
BRANCH  10  12
HETATM   12  O20         0      28.901  37.106 -21.599  1.00  0.00    -0.359 OA
HETATM   13  H20         0      29.165  36.231 -21.341  1.00  0.00     0.218 HD
ENDBRANCH  10  12
BRANCH   4  14
HETATM   14  C5          0      35.104  38.319 -21.634  1.00  0.00     0.025 C 
HETATM   15  C6          0      35.686  37.481 -20.694  1.00  0.00     0.004 C 
HETATM   16  C7          0      36.864  36.833 -21.051  1.00  0.00     0.026 C 
HETATM   17  C8          0      37.515  37.109 -22.248  1.00  0.00     0.112 C 
HETATM   18  C10         0      37.229  38.356 -22.790  1.00  0.00     0.112 C 
HETATM   19  C12         0      36.007  38.943 -22.484  1.00  0.00     0.028 C 
BRANCH  17  20
HETATM   20  O9          0      38.211  36.121 -22.921  1.00  0.00    -0.357 OA
HETATM   21  H9          0      38.762  35.477 -22.491  1.00  0.00     0.218 HD
ENDBRANCH  17  20
BRANCH  18  22
HETATM   22  O11         0      37.990  38.758 -23.878  1.00  0.00    -0.357 OA
HETATM   23  H11         0      38.926  38.597 -23.831  1.00  0.00     0.218 HD
ENDBRANCH  18  22
ENDBRANCH   4  14
BRANCH   8  24
HETATM   24  O17         0      29.696  39.910 -17.928  1.00  0.00    -0.359 OA
HETATM   25  H17         0      29.402  40.740 -17.572  1.00  0.00     0.218 HD
ENDBRANCH   8  24
TORSDOF 5
ENDMDL
MODEL 6
REMARK VINA RESULT:      -2.5      3.973      6.842
REMARK  5 active torsions:
REMARK  status: ('A' for Active; 'I' for Inactive)
REMARK    1  A    between atoms: C4_4  and  C5_5 
REMARK    2  A    between atoms: C8_8  and  O9_9 
REMARK    3  A    between atoms: C10_11  and  O11_12 
REMARK    4  A    between atoms: C16_18  and  O17_19 
REMARK    5  A    between atoms: C19_22  and  O20_23 
ROOT
HETATM    1  O1          0      32.669  39.159 -21.490  1.00  0.00    -0.286 OA
HETATM    2  C2          0      33.405  38.403 -20.799  1.00  0.00     0.201 C 
HETATM    3  C3          0      32.985  37.828 -19.612  1.00  0.00     0.067 C 
HETATM    4  C4          0      33.850  37.083 -18.817  1.00  0.00     0.103 C 
HETATM    5  O13         0      35.095  36.908 -19.224  1.00  0.00    -0.307 OA
HETATM    6  C14         0      35.555  37.463 -20.324  1.00  0.00     0.107 C 
HETATM    7  C15         0      36.914  37.624 -20.548  1.00  0.00     0.049 C 
HETATM    8  C16         0      37.386  38.430 -21.577  1.00  0.00     0.093 C 
HETATM    9  C18         0      36.503  38.607 -22.636  1.00  0.00     0.048 C 
HETATM   10  C19         0      35.140  38.409 -22.458  1.00  0.00     0.096 C 
HETATM   11  C21         0      34.664  38.020 -21.236  1.00  0.00     0.084 C 
ENDROOT
BRANCH  10  12
HETATM   12  O20         0      34.246  38.992 -23.351  1.00  0.00    -0.359 OA
HETATM   13  H20         0      33.434  38.534 -23.531  1.00  0.00     0.218 HD
ENDBRANCH  10  12
BRANCH   4  14
HETATM   14  C5          0      33.563  37.030 -17.382  1.00  0.00     0.025 C 
HETATM   15  C6          0      32.289  36.816 -16.877  1.00  0.00     0.004 C 
HETATM   16  C7          0      32.172  36.020 -15.742  1.00  0.00     0.026 C 
HETATM   17  C8          0      33.290  35.563 -15.053  1.00  0.00     0.112 C 
HETATM   18  C10         0      34.437  36.322 -15.240  1.00  0.00     0.112 C 
HETATM   19  C12         0      34.567  37.041 -16.422  1.00  0.00     0.028 C 
BRANCH  17  20
HETATM   20  O9          0      33.277  34.334 -14.417  1.00  0.00    -0.357 OA
HETATM   21  H9          0      33.407  34.221 -13.483  1.00  0.00     0.218 HD
ENDBRANCH  17  20
BRANCH  18  22
HETATM   22  O11         0      35.526  36.024 -14.434  1.00  0.00    -0.357 OA
HETATM   23  H11         0      36.213  36.679 -14.379  1.00  0.00     0.218 HD
ENDBRANCH  18  22
ENDBRANCH   4  14
BRANCH   8  24
HETATM   24  O17         0      38.502  39.256 -21.404  1.00  0.00    -0.359 OA
HETATM   25  H17         0      39.019  39.558 -22.141  1.00  0.00     0.218 HD
ENDBRANCH   8  24
TORSDOF 5
ENDMDL
MODEL 7
REMARK VINA RESULT:      -2.4      2.249      6.653
REMARK  5 active torsions:
REMARK  status: ('A' for Active; 'I' for Inactive)
REMARK    1  A    between atoms: C4_4  and  C5_5 
REMARK    2  A    between atoms: C8_8  and  O9_9 
REMARK    3  A    between atoms: C10_11  and  O11_12 
REMARK    4  A    between atoms: C16_18  and  O17_19 
REMARK    5  A    between atoms: C19_22  and  O20_23 
ROOT
HETATM    1  O1          0      35.618  36.693 -19.135  1.00  0.00    -0.286 OA
HETATM    2  C2          0      35.322  37.448 -20.102  1.00  0.00     0.201 C 
HETATM    3  C3          0      34.028  37.870 -20.355  1.00  0.00     0.067 C 
HETATM    4  C4          0      33.713  38.616 -21.485  1.00  0.00     0.103 C 
HETATM    5  O13         0      34.683  38.943 -22.320  1.00  0.00    -0.307 OA
HETATM    6  C14         0      35.922  38.536 -22.147  1.00  0.00     0.107 C 
HETATM    7  C15         0      36.840  38.525 -23.186  1.00  0.00     0.049 C 
HETATM    8  C16         0      38.057  37.864 -23.067  1.00  0.00     0.093 C 
HETATM    9  C18         0      38.512  37.703 -21.764  1.00  0.00     0.048 C 
HETATM   10  C19         0      37.627  37.755 -20.696  1.00  0.00     0.096 C 
HETATM   11  C21         0      36.298  37.984 -20.927  1.00  0.00     0.084 C 
ENDROOT
BRANCH  10  12
HETATM   12  O20         0      37.989  37.176 -19.484  1.00  0.00    -0.359 OA
HETATM   13  H20         0      37.559  37.487 -18.696  1.00  0.00     0.218 HD
ENDBRANCH  10  12
BRANCH   4  14
HETATM   14  C5          0      32.346  38.510 -21.999  1.00  0.00     0.025 C 
HETATM   15  C6          0      31.309  39.315 -21.551  1.00  0.00     0.004 C 
HETATM   16  C7          0      30.382  39.754 -22.491  1.00  0.00     0.026 C 
HETATM   17  C8          0      30.405  39.301 -23.805  1.00  0.00     0.112 C 
HETATM   18  C10         0      31.034  38.076 -23.985  1.00  0.00     0.112 C 
HETATM   19  C12         0      32.018  37.700 -23.079  1.00  0.00     0.028 C 
BRANCH  17  20
HETATM   20  O9          0      30.016  40.125 -24.846  1.00  0.00    -0.357 OA
HETATM   21  H9          0      29.922  39.831 -25.745  1.00  0.00     0.218 HD
ENDBRANCH  17  20
BRANCH  18  22
HETATM   22  O11         0      30.921  37.490 -25.238  1.00  0.00    -0.357 OA
HETATM   23  H11         0      30.042  37.338 -25.564  1.00  0.00     0.218 HD
ENDBRANCH  18  22
ENDBRANCH   4  14
BRANCH   8  24
HETATM   24  O17         0      38.597  37.133 -24.131  1.00  0.00    -0.359 OA
HETATM   25  H17         0      38.656  37.496 -25.007  1.00  0.00     0.218 HD
ENDBRANCH   8  24
TORSDOF 5
ENDMDL
MODEL 8
REMARK VINA RESULT:      -2.4      1.969      6.787
REMARK  5 active torsions:
REMARK  status: ('A' for Active; 'I' for Inactive)
REMARK    1  A    between atoms: C4_4  and  C5_5 
REMARK    2  A    between atoms: C8_8  and  O9_9 
REMARK    3  A    between atoms: C10_11  and  O11_12 
REMARK    4  A    between atoms: C16_18  and  O17_19 
REMARK    5  A    between atoms: C19_22  and  O20_23 
ROOT
HETATM    1  O1          0      33.830  36.066 -19.205  1.00  0.00    -0.286 OA
HETATM    2  C2          0      33.710  37.120 -19.889  1.00  0.00     0.201 C 
HETATM    3  C3          0      32.598  37.942 -19.813  1.00  0.00     0.067 C 
HETATM    4  C4          0      32.445  39.040 -20.651  1.00  0.00     0.103 C 
HETATM    5  O13         0      33.399  39.309 -21.526  1.00  0.00    -0.307 OA
HETATM    6  C14         0      34.457  38.540 -21.665  1.00  0.00     0.107 C 
HETATM    7  C15         0      35.239  38.573 -22.811  1.00  0.00     0.049 C 
HETATM    8  C16         0      36.191  37.593 -23.063  1.00  0.00     0.093 C 
HETATM    9  C18         0      36.675  36.941 -21.935  1.00  0.00     0.048 C 
HETATM   10  C19         0      35.940  36.928 -20.758  1.00  0.00     0.096 C 
HETATM   11  C21         0      34.736  37.577 -20.702  1.00  0.00     0.084 C 
ENDROOT
BRANCH  10  12
HETATM   12  O20         0      36.196  35.946 -19.806  1.00  0.00    -0.359 OA
HETATM   13  H20         0      36.527  35.108 -20.109  1.00  0.00     0.218 HD
ENDBRANCH  10  12
BRANCH   4  14
HETATM   14  C5          0      31.078  39.474 -20.944  1.00  0.00     0.025 C 
HETATM   15  C6          0      30.440  39.189 -22.143  1.00  0.00     0.004 C 
HETATM   16  C7          0      29.084  38.879 -22.093  1.00  0.00     0.026 C 
HETATM   17  C8          0      28.356  38.978 -20.913  1.00  0.00     0.112 C 
HETATM   18  C10         0      28.894  39.844 -19.970  1.00  0.00     0.112 C 
HETATM   19  C12         0      30.266  40.070 -19.989  1.00  0.00     0.028 C 
BRANCH  17  20
HETATM   20  O9          0      27.309  38.112 -20.651  1.00  0.00    -0.357 OA
HETATM   21  H9          0      27.202  37.269 -21.076  1.00  0.00     0.218 HD
ENDBRANCH  17  20
BRANCH  18  22
HETATM   22  O11         0      28.115  40.124 -18.857  1.00  0.00    -0.357 OA
HETATM   23  H11         0      27.381  40.714 -18.983  1.00  0.00     0.218 HD
ENDBRANCH  18  22
ENDBRANCH   4  14
BRANCH   8  24
HETATM   24  O17         0      36.387  37.081 -24.350  1.00  0.00    -0.359 OA
HETATM   25  H17         0      35.657  36.836 -24.906  1.00  0.00     0.218 HD
ENDBRANCH   8  24
TORSDOF 5
ENDMDL
MODEL 9
REMARK VINA RESULT:      -2.4      2.043      2.529
REMARK  5 active torsions:
REMARK  status: ('A' for Active; 'I' for Inactive)
REMARK    1  A    between atoms: C4_4  and  C5_5 
REMARK    2  A    between atoms: C8_8  and  O9_9 
REMARK    3  A    between atoms: C10_11  and  O11_12 
REMARK    4  A    between atoms: C16_18  and  O17_19 
REMARK    5  A    between atoms: C19_22  and  O20_23 
ROOT
HETATM    1  O1          0      32.752  35.098 -19.735  1.00  0.00    -0.286 OA
HETATM    2  C2          0      32.964  36.227 -20.257  1.00  0.00     0.201 C 
HETATM    3  C3          0      34.140  36.540 -20.916  1.00  0.00     0.067 C 
HETATM    4  C4          0      34.390  37.823 -21.392  1.00  0.00     0.103 C 
HETATM    5  O13         0      33.467  38.753 -21.223  1.00  0.00    -0.307 OA
HETATM    6  C14         0      32.349  38.519 -20.571  1.00  0.00     0.107 C 
HETATM    7  C15         0      31.579  39.547 -20.047  1.00  0.00     0.049 C 
HETATM    8  C16         0      30.548  39.292 -19.150  1.00  0.00     0.093 C 
HETATM    9  C18         0      30.005  38.016 -19.228  1.00  0.00     0.048 C 
HETATM   10  C19         0      30.730  36.973 -19.789  1.00  0.00     0.096 C 
HETATM   11  C21         0      31.984  37.208 -20.284  1.00  0.00     0.084 C 
ENDROOT
BRANCH  10  12
HETATM   12  O20         0      30.387  35.661 -19.478  1.00  0.00    -0.359 OA
HETATM   13  H20         0      30.971  35.170 -18.913  1.00  0.00     0.218 HD
ENDBRANCH  10  12
BRANCH   4  14
HETATM   14  C5          0      35.790  38.232 -21.510  1.00  0.00     0.025 C 
HETATM   15  C6          0      36.696  38.123 -20.465  1.00  0.00     0.004 C 
HETATM   16  C7          0      37.998  37.743 -20.777  1.00  0.00     0.026 C 
HETATM   17  C8          0      38.421  37.606 -22.095  1.00  0.00     0.112 C 
HETATM   18  C10         0      37.678  38.327 -23.021  1.00  0.00     0.112 C 
HETATM   19  C12         0      36.353  38.620 -22.719  1.00  0.00     0.028 C 
BRANCH  17  20
HETATM   20  O9          0      39.368  36.659 -22.440  1.00  0.00    -0.357 OA
HETATM   21  H9          0      39.326  35.748 -22.174  1.00  0.00     0.218 HD
ENDBRANCH  17  20
BRANCH  18  22
HETATM   22  O11         0      38.168  38.378 -24.317  1.00  0.00    -0.357 OA
HETATM   23  H11         0      38.994  38.830 -24.448  1.00  0.00     0.218 HD
ENDBRANCH  18  22
ENDBRANCH   4  14
BRANCH   8  24
HETATM   24  O17         0      30.317  40.125 -18.050  1.00  0.00    -0.359 OA
HETATM   25  H17         0      29.566  40.003 -17.481  1.00  0.00     0.218 HD
ENDBRANCH   8  24
TORSDOF 5
ENDMDL
