MODEL 1
REMARK VINA RESULT:      -8.8      0.000      0.000
REMARK  5 active torsions:
REMARK  status: ('A' for Active; 'I' for Inactive)
REMARK    1  A    between atoms: C4_4  and  C5_5 
REMARK    2  A    between atoms: C8_8  and  O9_9 
REMARK    3  A    between atoms: C10_11  and  O11_12 
REMARK    4  A    between atoms: C16_18  and  O17_19 
REMARK    5  A    between atoms: C19_22  and  O20_23 
ROOT
HETATM    1  O1          0      46.218  50.671  -8.183  1.00  0.00    -0.286 OA
HETATM    2  C2          0      45.732  49.529  -8.409  1.00  0.00     0.201 C 
HETATM    3  C3          0      45.501  48.600  -7.408  1.00  0.00     0.067 C 
HETATM    4  C4          0      45.062  47.313  -7.697  1.00  0.00     0.103 C 
HETATM    5  O13         0      44.843  46.984  -8.957  1.00  0.00    -0.307 OA
HETATM    6  C14         0      45.082  47.816  -9.948  1.00  0.00     0.107 C 
HETATM    7  C15         0      45.241  47.371 -11.253  1.00  0.00     0.049 C 
HETATM    8  C16         0      45.741  48.208 -12.244  1.00  0.00     0.093 C 
HETATM    9  C18         0      45.561  49.566 -12.012  1.00  0.00     0.048 C 
HETATM   10  C19         0      45.352  50.040 -10.724  1.00  0.00     0.096 C 
HETATM   11  C21         0      45.306  49.161  -9.676  1.00  0.00     0.084 C 
ENDROOT
BRANCH  10  12
HETATM   12  O20         0      45.606  51.378 -10.442  1.00  0.00    -0.359 OA
HETATM   13  H20         0      45.230  51.746  -9.652  1.00  0.00     0.218 HD
ENDBRANCH  10  12
BRANCH   4  14
HETATM   14  C5          0      45.409  46.258  -6.743  1.00  0.00     0.025 C 
HETATM   15  C6          0      46.465  45.380  -6.945  1.00  0.00     0.004 C 
HETATM   16  C7          0      47.222  45.018  -5.835  1.00  0.00     0.026 C 
HETATM   17  C8          0      46.863  45.405  -4.549  1.00  0.00     0.112 C 
HETATM   18  C10         0      45.518  45.709  -4.389  1.00  0.00     0.112 C 
HETATM   19  C12         0      44.805  46.151  -5.497  1.00  0.00     0.028 C 
BRANCH  17  20
HETATM   20  O9          0      47.827  45.660  -3.590  1.00  0.00    -0.357 OA
HETATM   21  H9          0      48.752  45.757  -3.785  1.00  0.00     0.218 HD
ENDBRANCH  17  20
BRANCH  18  22
HETATM   22  O11         0      45.070  45.917  -3.092  1.00  0.00    -0.357 OA
HETATM   23  H11         0      44.284  45.452  -2.829  1.00  0.00     0.218 HD
ENDBRANCH  18  22
ENDBRANCH   4  14
BRANCH   8  24
HETATM   24  O17         0      46.639  47.739 -13.209  1.00  0.00    -0.359 OA
HETATM   25  H17         0      47.152  48.333 -13.744  1.00  0.00     0.218 HD
ENDBRANCH   8  24
TORSDOF 5
ENDMDL
MODEL 2
REMARK VINA RESULT:      -8.0      2.255      6.644
REMARK  5 active torsions:
REMARK  status: ('A' for Active; 'I' for Inactive)
REMARK    1  A    between atoms: C4_4  and  C5_5 
REMARK    2  A    between atoms: C8_8  and  O9_9 
REMARK    3  A    between atoms: C10_11  and  O11_12 
REMARK    4  A    between atoms: C16_18  and  O17_19 
REMARK    5  A    between atoms: C19_22  and  O20_23 
ROOT
HETATM    1  O1          0      44.841  47.850  -5.991  1.00  0.00    -0.286 OA
HETATM    2  C2          0      44.724  47.281  -7.111  1.00  0.00     0.201 C 
HETATM    3  C3          0      45.306  47.772  -8.267  1.00  0.00     0.067 C 
HETATM    4  C4          0      45.077  47.182  -9.505  1.00  0.00     0.103 C 
HETATM    5  O13         0      44.300  46.115  -9.566  1.00  0.00    -0.307 OA
HETATM    6  C14         0      43.693  45.631  -8.504  1.00  0.00     0.107 C 
HETATM    7  C15         0      42.593  44.792  -8.610  1.00  0.00     0.049 C 
HETATM    8  C16         0      41.806  44.491  -7.505  1.00  0.00     0.093 C 
HETATM    9  C18         0      42.448  44.610  -6.278  1.00  0.00     0.048 C 
HETATM   10  C19         0      43.579  45.404  -6.147  1.00  0.00     0.096 C 
HETATM   11  C21         0      44.077  46.061  -7.239  1.00  0.00     0.084 C 
ENDROOT
BRANCH  10  12
HETATM   12  O20         0      43.946  45.862  -4.886  1.00  0.00    -0.359 OA
HETATM   13  H20         0      44.542  46.600  -4.836  1.00  0.00     0.218 HD
ENDBRANCH  10  12
BRANCH   4  14
HETATM   14  C5          0      45.191  48.039 -10.687  1.00  0.00     0.025 C 
HETATM   15  C6          0      45.357  49.414 -10.605  1.00  0.00     0.004 C 
HETATM   16  C7          0      46.205  50.016 -11.528  1.00  0.00     0.026 C 
HETATM   17  C8          0      46.766  49.300 -12.580  1.00  0.00     0.112 C 
HETATM   18  C10         0      46.067  48.155 -12.939  1.00  0.00     0.112 C 
HETATM   19  C12         0      45.293  47.524 -11.973  1.00  0.00     0.028 C 
BRANCH  17  20
HETATM   20  O9          0      48.025  49.614 -13.060  1.00  0.00    -0.357 OA
HETATM   21  H9          0      48.266  49.571 -13.978  1.00  0.00     0.218 HD
ENDBRANCH  17  20
BRANCH  18  22
HETATM   22  O11         0      46.473  47.508 -14.098  1.00  0.00    -0.357 OA
HETATM   23  H11         0      45.789  47.169 -14.663  1.00  0.00     0.218 HD
ENDBRANCH  18  22
ENDBRANCH   4  14
BRANCH   8  24
HETATM   24  O17         0      40.412  44.411  -7.601  1.00  0.00    -0.359 OA
HETATM   25  H17         0      39.884  45.166  -7.834  1.00  0.00     0.218 HD
ENDBRANCH   8  24
TORSDOF 5
ENDMDL
MODEL 3
REMARK VINA RESULT:      -7.9      1.633      2.729
REMARK  5 active torsions:
REMARK  status: ('A' for Active; 'I' for Inactive)
REMARK    1  A    between atoms: C4_4  and  C5_5 
REMARK    2  A    between atoms: C8_8  and  O9_9 
REMARK    3  A    between atoms: C10_11  and  O11_12 
REMARK    4  A    between atoms: C16_18  and  O17_19 
REMARK    5  A    between atoms: C19_22  and  O20_23 
ROOT
HETATM    1  O1          0      46.349  50.243 -11.544  1.00  0.00    -0.286 OA
HETATM    2  C2          0      45.751  49.251 -11.045  1.00  0.00     0.201 C 
HETATM    3  C3          0      45.579  49.087  -9.681  1.00  0.00     0.067 C 
HETATM    4  C4          0      45.008  47.935  -9.152  1.00  0.00     0.103 C 
HETATM    5  O13         0      44.604  46.988  -9.981  1.00  0.00    -0.307 OA
HETATM    6  C14         0      44.778  47.077 -11.281  1.00  0.00     0.107 C 
HETATM    7  C15         0      44.734  45.960 -12.103  1.00  0.00     0.049 C 
HETATM    8  C16         0      45.165  46.017 -13.422  1.00  0.00     0.093 C 
HETATM    9  C18         0      45.122  47.281 -14.000  1.00  0.00     0.048 C 
HETATM   10  C19         0      45.117  48.419 -13.206  1.00  0.00     0.096 C 
HETATM   11  C21         0      45.139  48.297 -11.843  1.00  0.00     0.084 C 
ENDROOT
BRANCH  10  12
HETATM   12  O20         0      45.509  49.635 -13.758  1.00  0.00    -0.359 OA
HETATM   13  H20         0      44.934  50.040 -14.396  1.00  0.00     0.218 HD
ENDBRANCH  10  12
BRANCH   4  14
HETATM   14  C5          0      45.393  47.561  -7.789  1.00  0.00     0.025 C 
HETATM   15  C6          0      45.079  48.335  -6.681  1.00  0.00     0.004 C 
HETATM   16  C7          0      44.722  47.671  -5.512  1.00  0.00     0.026 C 
HETATM   17  C8          0      44.803  46.287  -5.405  1.00  0.00     0.112 C 
HETATM   18  C10         0      45.692  45.688  -6.287  1.00  0.00     0.112 C 
HETATM   19  C12         0      45.966  46.333  -7.488  1.00  0.00     0.028 C 
BRANCH  17  20
HETATM   20  O9          0      43.903  45.582  -4.625  1.00  0.00    -0.357 OA
HETATM   21  H9          0      42.985  45.811  -4.541  1.00  0.00     0.218 HD
ENDBRANCH  17  20
BRANCH  18  22
HETATM   22  O11         0      45.952  44.338  -6.099  1.00  0.00    -0.357 OA
HETATM   23  H11         0      45.346  43.724  -6.495  1.00  0.00     0.218 HD
ENDBRANCH  18  22
ENDBRANCH   4  14
BRANCH   8  24
HETATM   24  O17         0      45.893  44.970 -13.997  1.00  0.00    -0.359 OA
HETATM   25  H17         0      46.832  45.028 -14.129  1.00  0.00     0.218 HD
ENDBRANCH   8  24
TORSDOF 5
ENDMDL
MODEL 4
REMARK VINA RESULT:      -7.9      3.141      5.855
REMARK  5 active torsions:
REMARK  status: ('A' for Active; 'I' for Inactive)
REMARK    1  A    between atoms: C4_4  and  C5_5 
REMARK    2  A    between atoms: C8_8  and  O9_9 
REMARK    3  A    between atoms: C10_11  and  O11_12 
REMARK    4  A    between atoms: C16_18  and  O17_19 
REMARK    5  A    between atoms: C19_22  and  O20_23 
ROOT
HETATM    1  O1          0      45.056  47.692 -15.543  1.00  0.00    -0.286 OA
HETATM    2  C2          0      44.826  47.333 -14.355  1.00  0.00     0.201 C 
HETATM    3  C3          0      44.998  48.175 -13.270  1.00  0.00     0.067 C 
HETATM    4  C4          0      44.836  47.723 -11.965  1.00  0.00     0.103 C 
HETATM    5  O13         0      44.492  46.463 -11.767  1.00  0.00    -0.307 OA
HETATM    6  C14         0      44.353  45.612 -12.760  1.00  0.00     0.107 C 
HETATM    7  C15         0      44.391  44.240 -12.558  1.00  0.00     0.049 C 
HETATM    8  C16         0      44.500  43.356 -13.624  1.00  0.00     0.093 C 
HETATM    9  C18         0      44.042  43.845 -14.842  1.00  0.00     0.048 C 
HETATM   10  C19         0      43.948  45.213 -15.062  1.00  0.00     0.096 C 
HETATM   11  C21         0      44.292  46.086 -14.066  1.00  0.00     0.084 C 
ENDROOT
BRANCH  10  12
HETATM   12  O20         0      43.919  45.691 -16.368  1.00  0.00    -0.359 OA
HETATM   13  H20         0      43.516  45.146 -17.033  1.00  0.00     0.218 HD
ENDBRANCH  10  12
BRANCH   4  14
HETATM   14  C5          0      45.583  48.422 -10.918  1.00  0.00     0.025 C 
HETATM   15  C6          0      46.179  49.659 -11.117  1.00  0.00     0.004 C 
HETATM   16  C7          0      46.135  50.573 -10.068  1.00  0.00     0.026 C 
HETATM   17  C8          0      45.635  50.224  -8.818  1.00  0.00     0.112 C 
HETATM   18  C10         0      45.665  48.864  -8.540  1.00  0.00     0.112 C 
HETATM   19  C12         0      45.623  47.972  -9.604  1.00  0.00     0.028 C 
BRANCH  17  20
HETATM   20  O9          0      44.976  51.154  -8.034  1.00  0.00    -0.357 OA
HETATM   21  H9          0      44.173  50.971  -7.560  1.00  0.00     0.218 HD
ENDBRANCH  17  20
BRANCH  18  22
HETATM   22  O11         0      45.357  48.481  -7.243  1.00  0.00    -0.357 OA
HETATM   23  H11         0      44.870  47.672  -7.137  1.00  0.00     0.218 HD
ENDBRANCH  18  22
ENDBRANCH   4  14
BRANCH   8  24
HETATM   24  O17         0      45.308  42.216 -13.547  1.00  0.00    -0.359 OA
HETATM   25  H17         0      46.091  42.195 -13.010  1.00  0.00     0.218 HD
ENDBRANCH   8  24
TORSDOF 5
ENDMDL
MODEL 5
REMARK VINA RESULT:      -7.7      2.821      4.539
REMARK  5 active torsions:
REMARK  status: ('A' for Active; 'I' for Inactive)
REMARK    1  A    between atoms: C4_4  and  C5_5 
REMARK    2  A    between atoms: C8_8  and  O9_9 
REMARK    3  A    between atoms: C10_11  and  O11_12 
REMARK    4  A    between atoms: C16_18  and  O17_19 
REMARK    5  A    between atoms: C19_22  and  O20_23 
ROOT
HETATM    1  O1          0      45.184  48.909 -14.128  1.00  0.00    -0.286 OA
HETATM    2  C2          0      44.901  47.978 -13.325  1.00  0.00     0.201 C 
HETATM    3  C3          0      44.991  48.120 -11.951  1.00  0.00     0.067 C 
HETATM    4  C4          0      44.773  47.048 -11.092  1.00  0.00     0.103 C 
HETATM    5  O13         0      44.454  45.875 -11.609  1.00  0.00    -0.307 OA
HETATM    6  C14         0      44.392  45.677 -12.908  1.00  0.00     0.107 C 
HETATM    7  C15         0      44.457  44.405 -13.457  1.00  0.00     0.049 C 
HETATM    8  C16         0      44.647  44.216 -14.821  1.00  0.00     0.093 C 
HETATM    9  C18         0      44.242  45.277 -15.622  1.00  0.00     0.048 C 
HETATM   10  C19         0      44.121  46.554 -15.094  1.00  0.00     0.096 C 
HETATM   11  C21         0      44.387  46.769 -13.769  1.00  0.00     0.084 C 
ENDROOT
BRANCH  10  12
HETATM   12  O20         0      44.148  47.651 -15.951  1.00  0.00    -0.359 OA
HETATM   13  H20         0      44.762  47.634 -16.675  1.00  0.00     0.218 HD
ENDBRANCH  10  12
BRANCH   4  14
HETATM   14  C5          0      45.443  47.085  -9.791  1.00  0.00     0.025 C 
HETATM   15  C6          0      45.920  48.258  -9.224  1.00  0.00     0.004 C 
HETATM   16  C7          0      45.782  48.412  -7.848  1.00  0.00     0.026 C 
HETATM   17  C8          0      45.310  47.382  -7.043  1.00  0.00     0.112 C 
HETATM   18  C10         0      45.468  46.110  -7.577  1.00  0.00     0.112 C 
HETATM   19  C12         0      45.517  45.975  -8.959  1.00  0.00     0.028 C 
BRANCH  17  20
HETATM   20  O9          0      44.560  47.653  -5.912  1.00  0.00    -0.357 OA
HETATM   21  H9          0      43.675  47.334  -5.776  1.00  0.00     0.218 HD
ENDBRANCH  17  20
BRANCH  18  22
HETATM   22  O11         0      45.189  45.038  -6.741  1.00  0.00    -0.357 OA
HETATM   23  H11         0      44.286  44.933  -6.463  1.00  0.00     0.218 HD
ENDBRANCH  18  22
ENDBRANCH   4  14
BRANCH   8  24
HETATM   24  O17         0      45.481  43.203 -15.308  1.00  0.00    -0.359 OA
HETATM   25  H17         0      45.180  42.306 -15.389  1.00  0.00     0.218 HD
ENDBRANCH   8  24
TORSDOF 5
ENDMDL
MODEL 6
REMARK VINA RESULT:      -7.7      2.210      3.375
REMARK  5 active torsions:
REMARK  status: ('A' for Active; 'I' for Inactive)
REMARK    1  A    between atoms: C4_4  and  C5_5 
REMARK    2  A    between atoms: C8_8  and  O9_9 
REMARK    3  A    between atoms: C10_11  and  O11_12 
REMARK    4  A    between atoms: C16_18  and  O17_19 
REMARK    5  A    between atoms: C19_22  and  O20_23 
ROOT
HETATM    1  O1          0      46.997  49.516 -12.231  1.00  0.00    -0.286 OA
HETATM    2  C2          0      46.159  48.591 -12.042  1.00  0.00     0.201 C 
HETATM    3  C3          0      45.624  48.307 -10.797  1.00  0.00     0.067 C 
HETATM    4  C4          0      44.782  47.218 -10.598  1.00  0.00     0.103 C 
HETATM    5  O13         0      44.477  46.454 -11.631  1.00  0.00    -0.307 OA
HETATM    6  C14         0      44.987  46.658 -12.826  1.00  0.00     0.107 C 
HETATM    7  C15         0      45.000  45.664 -13.794  1.00  0.00     0.049 C 
HETATM    8  C16         0      45.759  45.794 -14.951  1.00  0.00     0.093 C 
HETATM    9  C18         0      46.040  47.102 -15.325  1.00  0.00     0.048 C 
HETATM   10  C19         0      45.990  48.129 -14.392  1.00  0.00     0.096 C 
HETATM   11  C21         0      45.646  47.852 -13.097  1.00  0.00     0.084 C 
ENDROOT
BRANCH  10  12
HETATM   12  O20         0      46.675  49.313 -14.646  1.00  0.00    -0.359 OA
HETATM   13  H20         0      47.140  49.722 -13.926  1.00  0.00     0.218 HD
ENDBRANCH  10  12
BRANCH   4  14
HETATM   14  C5          0      44.750  46.634  -9.255  1.00  0.00     0.025 C 
HETATM   15  C6          0      45.317  45.404  -8.957  1.00  0.00     0.004 C 
HETATM   16  C7          0      45.959  45.270  -7.730  1.00  0.00     0.026 C 
HETATM   17  C8          0      45.924  46.281  -6.775  1.00  0.00     0.112 C 
HETATM   18  C10         0      44.853  47.155  -6.895  1.00  0.00     0.112 C 
HETATM   19  C12         0      44.283  47.334  -8.150  1.00  0.00     0.028 C 
BRANCH  17  20
HETATM   20  O9          0      46.997  46.492  -5.928  1.00  0.00    -0.357 OA
HETATM   21  H9          0      47.112  47.279  -5.407  1.00  0.00     0.218 HD
ENDBRANCH  17  20
BRANCH  18  22
HETATM   22  O11         0      44.664  48.063  -5.863  1.00  0.00    -0.357 OA
HETATM   23  H11         0      44.391  47.710  -5.024  1.00  0.00     0.218 HD
ENDBRANCH  18  22
ENDBRANCH   4  14
BRANCH   8  24
HETATM   24  O17         0      46.457  44.708 -15.491  1.00  0.00    -0.359 OA
HETATM   25  H17         0      46.349  44.446 -16.398  1.00  0.00     0.218 HD
ENDBRANCH   8  24
TORSDOF 5
ENDMDL
MODEL 7
REMARK VINA RESULT:      -7.7      2.546      6.908
REMARK  5 active torsions:
REMARK  status: ('A' for Active; 'I' for Inactive)
REMARK    1  A    between atoms: C4_4  and  C5_5 
REMARK    2  A    between atoms: C8_8  and  O9_9 
REMARK    3  A    between atoms: C10_11  and  O11_12 
REMARK    4  A    between atoms: C16_18  and  O17_19 
REMARK    5  A    between atoms: C19_22  and  O20_23 
ROOT
HETATM    1  O1          0      45.524  50.934 -10.274  1.00  0.00    -0.286 OA
HETATM    2  C2          0      45.617  49.716 -10.588  1.00  0.00     0.201 C 
HETATM    3  C3          0      45.783  49.288 -11.894  1.00  0.00     0.067 C 
HETATM    4  C4          0      45.780  47.938 -12.224  1.00  0.00     0.103 C 
HETATM    5  O13         0      45.634  47.048 -11.258  1.00  0.00    -0.307 OA
HETATM    6  C14         0      45.436  47.401 -10.007  1.00  0.00     0.107 C 
HETATM    7  C15         0      44.895  46.525  -9.077  1.00  0.00     0.049 C 
HETATM    8  C16         0      44.453  46.971  -7.837  1.00  0.00     0.093 C 
HETATM    9  C18         0      45.046  48.146  -7.391  1.00  0.00     0.048 C 
HETATM   10  C19         0      45.638  49.023  -8.289  1.00  0.00     0.096 C 
HETATM   11  C21         0      45.654  48.720  -9.623  1.00  0.00     0.084 C 
ENDROOT
BRANCH  10  12
HETATM   12  O20         0      45.828  50.351  -7.919  1.00  0.00    -0.359 OA
HETATM   13  H20         0      45.284  51.010  -8.332  1.00  0.00     0.218 HD
ENDBRANCH  10  12
BRANCH   4  14
HETATM   14  C5          0      45.357  47.581 -13.580  1.00  0.00     0.025 C 
HETATM   15  C6          0      46.213  47.628 -14.671  1.00  0.00     0.004 C 
HETATM   16  C7          0      46.095  46.624 -15.626  1.00  0.00     0.026 C 
HETATM   17  C8          0      45.075  45.681 -15.571  1.00  0.00     0.112 C 
HETATM   18  C10         0      43.953  46.082 -14.858  1.00  0.00     0.112 C 
HETATM   19  C12         0      44.114  47.025 -13.850  1.00  0.00     0.028 C 
BRANCH  17  20
HETATM   20  O9          0      45.280  44.387 -16.017  1.00  0.00    -0.357 OA
HETATM   21  H9          0      44.818  43.631 -15.674  1.00  0.00     0.218 HD
ENDBRANCH  17  20
BRANCH  18  22
HETATM   22  O11         0      42.836  45.261 -14.930  1.00  0.00    -0.357 OA
HETATM   23  H11         0      42.409  45.043 -14.109  1.00  0.00     0.218 HD
ENDBRANCH  18  22
ENDBRANCH   4  14
BRANCH   8  24
HETATM   24  O17         0      43.281  46.472  -7.258  1.00  0.00    -0.359 OA
HETATM   25  H17         0      42.436  46.876  -7.415  1.00  0.00     0.218 HD
ENDBRANCH   8  24
TORSDOF 5
ENDMDL
MODEL 8
REMARK VINA RESULT:      -7.5      3.089      7.333
REMARK  5 active torsions:
REMARK  status: ('A' for Active; 'I' for Inactive)
REMARK    1  A    between atoms: C4_4  and  C5_5 
REMARK    2  A    between atoms: C8_8  and  O9_9 
REMARK    3  A    between atoms: C10_11  and  O11_12 
REMARK    4  A    between atoms: C16_18  and  O17_19 
REMARK    5  A    between atoms: C19_22  and  O20_23 
ROOT
HETATM    1  O1          0      44.912  50.414 -12.443  1.00  0.00    -0.286 OA
HETATM    2  C2          0      45.174  49.202 -12.209  1.00  0.00     0.201 C 
HETATM    3  C3          0      45.182  48.233 -13.198  1.00  0.00     0.067 C 
HETATM    4  C4          0      45.372  46.889 -12.898  1.00  0.00     0.103 C 
HETATM    5  O13         0      45.569  46.541 -11.639  1.00  0.00    -0.307 OA
HETATM    6  C14         0      45.533  47.416 -10.658  1.00  0.00     0.107 C 
HETATM    7  C15         0      45.338  47.029  -9.340  1.00  0.00     0.049 C 
HETATM    8  C16         0      45.047  47.961  -8.350  1.00  0.00     0.093 C 
HETATM    9  C18         0      45.480  49.254  -8.616  1.00  0.00     0.048 C 
HETATM   10  C19         0      45.731  49.660  -9.919  1.00  0.00     0.096 C 
HETATM   11  C21         0      45.566  48.775 -10.950  1.00  0.00     0.084 C 
ENDROOT
BRANCH  10  12
HETATM   12  O20         0      45.732  51.019 -10.220  1.00  0.00    -0.359 OA
HETATM   13  H20         0      45.283  51.607  -9.625  1.00  0.00     0.218 HD
ENDBRANCH  10  12
BRANCH   4  14
HETATM   14  C5          0      44.791  45.909 -13.817  1.00  0.00     0.025 C 
HETATM   15  C6          0      43.692  46.187 -14.617  1.00  0.00     0.004 C 
HETATM   16  C7          0      43.683  45.663 -15.906  1.00  0.00     0.026 C 
HETATM   17  C8          0      44.666  44.782 -16.341  1.00  0.00     0.112 C 
HETATM   18  C10         0      45.318  44.093 -15.327  1.00  0.00     0.112 C 
HETATM   19  C12         0      45.386  44.679 -14.069  1.00  0.00     0.028 C 
BRANCH  17  20
HETATM   20  O9          0      45.079  44.777 -17.662  1.00  0.00    -0.357 OA
HETATM   21  H9          0      45.102  43.997 -18.205  1.00  0.00     0.218 HD
ENDBRANCH  17  20
BRANCH  18  22
HETATM   22  O11         0      46.172  43.069 -15.711  1.00  0.00    -0.357 OA
HETATM   23  H11         0      45.879  42.508 -16.421  1.00  0.00     0.218 HD
ENDBRANCH  18  22
ENDBRANCH   4  14
BRANCH   8  24
HETATM   24  O17         0      44.111  47.690  -7.346  1.00  0.00    -0.359 OA
HETATM   25  H17         0      43.357  48.250  -7.203  1.00  0.00     0.218 HD
ENDBRANCH   8  24
TORSDOF 5
ENDMDL
MODEL 9
REMARK VINA RESULT:      -6.8      2.924      6.902
REMARK  5 active torsions:
REMARK  status: ('A' for Active; 'I' for Inactive)
REMARK    1  A    between atoms: C4_4  and  C5_5 
REMARK    2  A    between atoms: C8_8  and  O9_9 
REMARK    3  A    between atoms: C10_11  and  O11_12 
REMARK    4  A    between atoms: C16_18  and  O17_19 
REMARK    5  A    between atoms: C19_22  and  O20_23 
ROOT
HETATM    1  O1          0      44.891  50.290 -12.259  1.00  0.00    -0.286 OA
HETATM    2  C2          0      45.260  49.133 -11.917  1.00  0.00     0.201 C 
HETATM    3  C3          0      45.341  48.077 -12.809  1.00  0.00     0.067 C 
HETATM    4  C4          0      45.651  46.789 -12.386  1.00  0.00     0.103 C 
HETATM    5  O13         0      45.892  46.583 -11.103  1.00  0.00    -0.307 OA
HETATM    6  C14         0      45.791  47.542 -10.210  1.00  0.00     0.107 C 
HETATM    7  C15         0      45.646  47.270  -8.857  1.00  0.00     0.049 C 
HETATM    8  C16         0      45.287  48.264  -7.955  1.00  0.00     0.093 C 
HETATM    9  C18         0      45.603  49.558  -8.352  1.00  0.00     0.048 C 
HETATM   10  C19         0      45.802  49.856  -9.693  1.00  0.00     0.096 C 
HETATM   11  C21         0      45.702  48.865 -10.631  1.00  0.00     0.084 C 
ENDROOT
BRANCH  10  12
HETATM   12  O20         0      45.682  51.174 -10.122  1.00  0.00    -0.359 OA
HETATM   13  H20         0      44.939  51.678  -9.810  1.00  0.00     0.218 HD
ENDBRANCH  10  12
BRANCH   4  14
HETATM   14  C5          0      45.146  45.679 -13.196  1.00  0.00     0.025 C 
HETATM   15  C6          0      44.510  44.576 -12.646  1.00  0.00     0.004 C 
HETATM   16  C7          0      43.431  44.040 -13.343  1.00  0.00     0.026 C 
HETATM   17  C8          0      43.080  44.499 -14.608  1.00  0.00     0.112 C 
HETATM   18  C10         0      44.109  45.115 -15.308  1.00  0.00     0.112 C 
HETATM   19  C12         0      45.131  45.717 -14.584  1.00  0.00     0.028 C 
BRANCH  17  20
HETATM   20  O9          0      41.757  44.514 -15.015  1.00  0.00    -0.357 OA
HETATM   21  H9          0      41.203  43.743 -15.036  1.00  0.00     0.218 HD
ENDBRANCH  17  20
BRANCH  18  22
HETATM   22  O11         0      43.868  45.421 -16.640  1.00  0.00    -0.357 OA
HETATM   23  H11         0      43.678  44.693 -17.221  1.00  0.00     0.218 HD
ENDBRANCH  18  22
ENDBRANCH   4  14
BRANCH   8  24
HETATM   24  O17         0      44.389  48.013  -6.912  1.00  0.00    -0.359 OA
HETATM   25  H17         0      44.390  47.188  -6.441  1.00  0.00     0.218 HD
ENDBRANCH   8  24
TORSDOF 5
ENDMDL
