MODEL 1
REMARK VINA RESULT:      -5.6      0.000      0.000
REMARK  5 active torsions:
REMARK  status: ('A' for Active; 'I' for Inactive)
REMARK    1  A    between atoms: C4_4  and  C5_5 
REMARK    2  A    between atoms: C8_8  and  O9_9 
REMARK    3  A    between atoms: C10_11  and  O11_12 
REMARK    4  A    between atoms: C16_18  and  O17_19 
REMARK    5  A    between atoms: C19_22  and  O20_23 
ROOT
HETATM    1  O1          0      45.214   6.199  -6.882  1.00  0.00    -0.286 OA
HETATM    2  C2          0      44.762   6.610  -5.779  1.00  0.00     0.201 C 
HETATM    3  C3          0      44.292   7.899  -5.593  1.00  0.00     0.067 C 
HETATM    4  C4          0      43.896   8.358  -4.342  1.00  0.00     0.103 C 
HETATM    5  O13         0      43.953   7.528  -3.315  1.00  0.00    -0.307 OA
HETATM    6  C14         0      44.426   6.306  -3.429  1.00  0.00     0.107 C 
HETATM    7  C15         0      44.860   5.585  -2.326  1.00  0.00     0.049 C 
HETATM    8  C16         0      45.587   4.410  -2.472  1.00  0.00     0.093 C 
HETATM    9  C18         0      45.394   3.747  -3.678  1.00  0.00     0.048 C 
HETATM   10  C19         0      44.916   4.428  -4.790  1.00  0.00     0.096 C 
HETATM   11  C21         0      44.618   5.760  -4.693  1.00  0.00     0.084 C 
ENDROOT
BRANCH  10  12
HETATM   12  O20         0      45.135   3.899  -6.058  1.00  0.00    -0.359 OA
HETATM   13  H20         0      44.756   3.052  -6.258  1.00  0.00     0.218 HD
ENDBRANCH  10  12
BRANCH   4  14
HETATM   14  C5          0      43.997   9.797  -4.092  1.00  0.00     0.025 C 
HETATM   15  C6          0      44.001  10.340  -2.816  1.00  0.00     0.004 C 
HETATM   16  C7          0      44.841  11.424  -2.579  1.00  0.00     0.026 C 
HETATM   17  C8          0      45.553  12.033  -3.607  1.00  0.00     0.112 C 
HETATM   18  C10         0      45.014  11.848  -4.874  1.00  0.00     0.112 C 
HETATM   19  C12         0      44.248  10.712  -5.106  1.00  0.00     0.028 C 
BRANCH  17  20
HETATM   20  O9          0      46.800  12.586  -3.376  1.00  0.00    -0.357 OA
HETATM   21  H9          0      47.327  12.397  -2.608  1.00  0.00     0.218 HD
ENDBRANCH  17  20
BRANCH  18  22
HETATM   22  O11         0      45.572  12.586  -5.908  1.00  0.00    -0.357 OA
HETATM   23  H11         0      46.505  12.480  -6.058  1.00  0.00     0.218 HD
ENDBRANCH  18  22
ENDBRANCH   4  14
BRANCH   8  24
HETATM   24  O17         0      46.665   4.110  -1.632  1.00  0.00    -0.359 OA
HETATM   25  H17         0      47.459   3.707  -1.963  1.00  0.00     0.218 HD
ENDBRANCH   8  24
TORSDOF 5
ENDMDL
MODEL 2
REMARK VINA RESULT:      -5.1     12.761     15.623
REMARK  5 active torsions:
REMARK  status: ('A' for Active; 'I' for Inactive)
REMARK    1  A    between atoms: C4_4  and  C5_5 
REMARK    2  A    between atoms: C8_8  and  O9_9 
REMARK    3  A    between atoms: C10_11  and  O11_12 
REMARK    4  A    between atoms: C16_18  and  O17_19 
REMARK    5  A    between atoms: C19_22  and  O20_23 
ROOT
HETATM    1  O1          0      51.043   8.708 -18.579  1.00  0.00    -0.286 OA
HETATM    2  C2          0      50.439   7.803 -17.942  1.00  0.00     0.201 C 
HETATM    3  C3          0      50.744   6.459 -18.075  1.00  0.00     0.067 C 
HETATM    4  C4          0      49.995   5.475 -17.440  1.00  0.00     0.103 C 
HETATM    5  O13         0      48.981   5.843 -16.677  1.00  0.00    -0.307 OA
HETATM    6  C14         0      48.625   7.102 -16.546  1.00  0.00     0.107 C 
HETATM    7  C15         0      47.364   7.462 -16.095  1.00  0.00     0.049 C 
HETATM    8  C16         0      46.906   8.770 -16.199  1.00  0.00     0.093 C 
HETATM    9  C18         0      47.902   9.737 -16.259  1.00  0.00     0.048 C 
HETATM   10  C19         0      49.187   9.402 -16.662  1.00  0.00     0.096 C 
HETATM   11  C21         0      49.481   8.106 -16.986  1.00  0.00     0.084 C 
ENDROOT
BRANCH  10  12
HETATM   12  O20         0      50.035  10.401 -17.132  1.00  0.00    -0.359 OA
HETATM   13  H20         0      50.625  10.812 -16.512  1.00  0.00     0.218 HD
ENDBRANCH  10  12
BRANCH   4  14
HETATM   14  C5          0      49.965   4.150 -18.063  1.00  0.00     0.025 C 
HETATM   15  C6          0      50.736   3.821 -19.168  1.00  0.00     0.004 C 
HETATM   16  C7          0      51.285   2.543 -19.213  1.00  0.00     0.026 C 
HETATM   17  C8          0      50.969   1.580 -18.261  1.00  0.00     0.112 C 
HETATM   18  C10         0      49.760   1.782 -17.610  1.00  0.00     0.112 C 
HETATM   19  C12         0      49.276   3.081 -17.505  1.00  0.00     0.028 C 
BRANCH  17  20
HETATM   20  O9          0      51.903   0.636 -17.872  1.00  0.00    -0.357 OA
HETATM   21  H9          0      51.683  -0.257 -17.634  1.00  0.00     0.218 HD
ENDBRANCH  17  20
BRANCH  18  22
HETATM   22  O11         0      49.308   0.758 -16.790  1.00  0.00    -0.357 OA
HETATM   23  H11         0      49.967   0.183 -16.417  1.00  0.00     0.218 HD
ENDBRANCH  18  22
ENDBRANCH   4  14
BRANCH   8  24
HETATM   24  O17         0      45.583   9.053 -16.555  1.00  0.00    -0.359 OA
HETATM   25  H17         0      44.936   8.365 -16.661  1.00  0.00     0.218 HD
ENDBRANCH   8  24
TORSDOF 5
ENDMDL
MODEL 3
REMARK VINA RESULT:      -5.0     12.910     15.463
REMARK  5 active torsions:
REMARK  status: ('A' for Active; 'I' for Inactive)
REMARK    1  A    between atoms: C4_4  and  C5_5 
REMARK    2  A    between atoms: C8_8  and  O9_9 
REMARK    3  A    between atoms: C10_11  and  O11_12 
REMARK    4  A    between atoms: C16_18  and  O17_19 
REMARK    5  A    between atoms: C19_22  and  O20_23 
ROOT
HETATM    1  O1          0      53.668  12.256 -17.298  1.00  0.00    -0.286 OA
HETATM    2  C2          0      53.454  13.053 -16.343  1.00  0.00     0.201 C 
HETATM    3  C3          0      52.249  13.103 -15.663  1.00  0.00     0.067 C 
HETATM    4  C4          0      52.004  14.060 -14.685  1.00  0.00     0.103 C 
HETATM    5  O13         0      52.958  14.926 -14.390  1.00  0.00    -0.307 OA
HETATM    6  C14         0      54.106  14.946 -15.032  1.00  0.00     0.107 C 
HETATM    7  C15         0      54.931  16.061 -15.019  1.00  0.00     0.049 C 
HETATM    8  C16         0      56.006  16.173 -15.893  1.00  0.00     0.093 C 
HETATM    9  C18         0      56.512  14.966 -16.360  1.00  0.00     0.048 C 
HETATM   10  C19         0      55.729  13.820 -16.343  1.00  0.00     0.096 C 
HETATM   11  C21         0      54.455  13.875 -15.848  1.00  0.00     0.084 C 
ENDROOT
BRANCH  10  12
HETATM   12  O20         0      56.057  12.760 -17.183  1.00  0.00    -0.359 OA
HETATM   13  H20         0      55.532  11.971 -17.129  1.00  0.00     0.218 HD
ENDBRANCH  10  12
BRANCH   4  14
HETATM   14  C5          0      50.610  14.445 -14.458  1.00  0.00     0.025 C 
HETATM   15  C6          0      49.539  13.731 -14.977  1.00  0.00     0.004 C 
HETATM   16  C7          0      48.409  13.592 -14.178  1.00  0.00     0.026 C 
HETATM   17  C8          0      48.292  14.251 -12.959  1.00  0.00     0.112 C 
HETATM   18  C10         0      49.082  15.386 -12.836  1.00  0.00     0.112 C 
HETATM   19  C12         0      50.251  15.462 -13.583  1.00  0.00     0.028 C 
BRANCH  17  20
HETATM   20  O9          0      47.603  13.677 -11.906  1.00  0.00    -0.357 OA
HETATM   21  H9          0      47.924  12.934 -11.407  1.00  0.00     0.218 HD
ENDBRANCH  17  20
BRANCH  18  22
HETATM   22  O11         0      48.865  16.184 -11.721  1.00  0.00    -0.357 OA
HETATM   23  H11         0      48.632  15.741 -10.914  1.00  0.00     0.218 HD
ENDBRANCH  18  22
ENDBRANCH   4  14
BRANCH   8  24
HETATM   24  O17         0      56.322  17.390 -16.507  1.00  0.00    -0.359 OA
HETATM   25  H17         0      55.955  18.212 -16.204  1.00  0.00     0.218 HD
ENDBRANCH   8  24
TORSDOF 5
ENDMDL
MODEL 4
REMARK VINA RESULT:      -5.0     10.617     12.923
REMARK  5 active torsions:
REMARK  status: ('A' for Active; 'I' for Inactive)
REMARK    1  A    between atoms: C4_4  and  C5_5 
REMARK    2  A    between atoms: C8_8  and  O9_9 
REMARK    3  A    between atoms: C10_11  and  O11_12 
REMARK    4  A    between atoms: C16_18  and  O17_19 
REMARK    5  A    between atoms: C19_22  and  O20_23 
ROOT
HETATM    1  O1          0      49.130   8.254 -15.997  1.00  0.00    -0.286 OA
HETATM    2  C2          0      48.408   7.281 -16.349  1.00  0.00     0.201 C 
HETATM    3  C3          0      47.057   7.206 -16.056  1.00  0.00     0.067 C 
HETATM    4  C4          0      46.306   6.077 -16.365  1.00  0.00     0.103 C 
HETATM    5  O13         0      46.902   5.065 -16.971  1.00  0.00    -0.307 OA
HETATM    6  C14         0      48.190   5.070 -17.238  1.00  0.00     0.107 C 
HETATM    7  C15         0      48.888   3.899 -17.493  1.00  0.00     0.049 C 
HETATM    8  C16         0      50.277   3.878 -17.521  1.00  0.00     0.093 C 
HETATM    9  C18         0      50.876   5.097 -17.814  1.00  0.00     0.048 C 
HETATM   10  C19         0      50.189   6.287 -17.614  1.00  0.00     0.096 C 
HETATM   11  C21         0      48.906   6.258 -17.141  1.00  0.00     0.084 C 
ENDROOT
BRANCH  10  12
HETATM   12  O20         0      50.906   7.473 -17.485  1.00  0.00    -0.359 OA
HETATM   13  H20         0      51.796   7.422 -17.159  1.00  0.00     0.218 HD
ENDBRANCH  10  12
BRANCH   4  14
HETATM   14  C5          0      45.129   5.808 -15.537  1.00  0.00     0.025 C 
HETATM   15  C6          0      44.808   4.540 -15.075  1.00  0.00     0.004 C 
HETATM   16  C7          0      44.289   4.436 -13.788  1.00  0.00     0.026 C 
HETATM   17  C8          0      43.973   5.562 -13.036  1.00  0.00     0.112 C 
HETATM   18  C10         0      43.728   6.708 -13.781  1.00  0.00     0.112 C 
HETATM   19  C12         0      44.329   6.824 -15.029  1.00  0.00     0.028 C 
BRANCH  17  20
HETATM   20  O9          0      44.110   5.556 -11.659  1.00  0.00    -0.357 OA
HETATM   21  H9          0      43.592   6.098 -11.074  1.00  0.00     0.218 HD
ENDBRANCH  17  20
BRANCH  18  22
HETATM   22  O11         0      43.227   7.806 -13.098  1.00  0.00    -0.357 OA
HETATM   23  H11         0      42.904   7.655 -12.217  1.00  0.00     0.218 HD
ENDBRANCH  18  22
ENDBRANCH   4  14
BRANCH   8  24
HETATM   24  O17         0      51.002   2.815 -16.971  1.00  0.00    -0.359 OA
HETATM   25  H17         0      51.822   2.522 -17.349  1.00  0.00     0.218 HD
ENDBRANCH   8  24
TORSDOF 5
ENDMDL
MODEL 5
REMARK VINA RESULT:      -5.0     11.744     13.851
REMARK  5 active torsions:
REMARK  status: ('A' for Active; 'I' for Inactive)
REMARK    1  A    between atoms: C4_4  and  C5_5 
REMARK    2  A    between atoms: C8_8  and  O9_9 
REMARK    3  A    between atoms: C10_11  and  O11_12 
REMARK    4  A    between atoms: C16_18  and  O17_19 
REMARK    5  A    between atoms: C19_22  and  O20_23 
ROOT
HETATM    1  O1          0      50.720   5.692 -17.328  1.00  0.00    -0.286 OA
HETATM    2  C2          0      49.652   5.037 -17.479  1.00  0.00     0.201 C 
HETATM    3  C3          0      48.403   5.564 -17.197  1.00  0.00     0.067 C 
HETATM    4  C4          0      47.251   4.789 -17.274  1.00  0.00     0.103 C 
HETATM    5  O13         0      47.360   3.525 -17.645  1.00  0.00    -0.307 OA
HETATM    6  C14         0      48.525   2.966 -17.888  1.00  0.00     0.107 C 
HETATM    7  C15         0      48.690   1.588 -17.883  1.00  0.00     0.049 C 
HETATM    8  C16         0      49.955   1.013 -17.885  1.00  0.00     0.093 C 
HETATM    9  C18         0      50.961   1.810 -18.417  1.00  0.00     0.048 C 
HETATM   10  C19         0      50.810   3.188 -18.481  1.00  0.00     0.096 C 
HETATM   11  C21         0      49.654   3.766 -18.032  1.00  0.00     0.084 C 
ENDROOT
BRANCH  10  12
HETATM   12  O20         0      51.940   3.992 -18.592  1.00  0.00    -0.359 OA
HETATM   13  H20         0      51.853   4.914 -18.381  1.00  0.00     0.218 HD
ENDBRANCH  10  12
BRANCH   4  14
HETATM   14  C5          0      46.123   5.179 -16.426  1.00  0.00     0.025 C 
HETATM   15  C6          0      45.252   4.258 -15.863  1.00  0.00     0.004 C 
HETATM   16  C7          0      44.798   4.507 -14.571  1.00  0.00     0.026 C 
HETATM   17  C8          0      45.091   5.695 -13.911  1.00  0.00     0.112 C 
HETATM   18  C10         0      45.398   6.762 -14.746  1.00  0.00     0.112 C 
HETATM   19  C12         0      45.930   6.487 -16.000  1.00  0.00     0.028 C 
BRANCH  17  20
HETATM   20  O9          0      45.263   5.720 -12.538  1.00  0.00    -0.357 OA
HETATM   21  H9          0      45.781   5.083 -12.060  1.00  0.00     0.218 HD
ENDBRANCH  17  20
BRANCH  18  22
HETATM   22  O11         0      45.512   8.011 -14.153  1.00  0.00    -0.357 OA
HETATM   23  H11         0      44.736   8.359 -13.729  1.00  0.00     0.218 HD
ENDBRANCH  18  22
ENDBRANCH   4  14
BRANCH   8  24
HETATM   24  O17         0      50.242  -0.119 -17.114  1.00  0.00    -0.359 OA
HETATM   25  H17         0      51.127  -0.453 -17.029  1.00  0.00     0.218 HD
ENDBRANCH   8  24
TORSDOF 5
ENDMDL
MODEL 6
REMARK VINA RESULT:      -5.0      5.605     10.834
REMARK  5 active torsions:
REMARK  status: ('A' for Active; 'I' for Inactive)
REMARK    1  A    between atoms: C4_4  and  C5_5 
REMARK    2  A    between atoms: C8_8  and  O9_9 
REMARK    3  A    between atoms: C10_11  and  O11_12 
REMARK    4  A    between atoms: C16_18  and  O17_19 
REMARK    5  A    between atoms: C19_22  and  O20_23 
ROOT
HETATM    1  O1          0      47.391  16.925  -0.082  1.00  0.00    -0.286 OA
HETATM    2  C2          0      46.619  17.068  -1.069  1.00  0.00     0.201 C 
HETATM    3  C3          0      45.664  16.128  -1.417  1.00  0.00     0.067 C 
HETATM    4  C4          0      44.896  16.261  -2.568  1.00  0.00     0.103 C 
HETATM    5  O13         0      45.075  17.325  -3.331  1.00  0.00    -0.307 OA
HETATM    6  C14         0      45.993  18.229  -3.066  1.00  0.00     0.107 C 
HETATM    7  C15         0      46.456  19.106  -4.036  1.00  0.00     0.049 C 
HETATM    8  C16         0      47.593  19.878  -3.828  1.00  0.00     0.093 C 
HETATM    9  C18         0      47.898  20.125  -2.494  1.00  0.00     0.048 C 
HETATM   10  C19         0      47.412  19.294  -1.494  1.00  0.00     0.096 C 
HETATM   11  C21         0      46.613  18.233  -1.821  1.00  0.00     0.084 C 
ENDROOT
BRANCH  10  12
HETATM   12  O20         0      48.050  19.273  -0.258  1.00  0.00    -0.359 OA
HETATM   13  H20         0      47.557  19.556   0.503  1.00  0.00     0.218 HD
ENDBRANCH  10  12
BRANCH   4  14
HETATM   14  C5          0      44.388  15.032  -3.181  1.00  0.00     0.025 C 
HETATM   15  C6          0      43.681  15.023  -4.374  1.00  0.00     0.004 C 
HETATM   16  C7          0      43.924  13.978  -5.260  1.00  0.00     0.026 C 
HETATM   17  C8          0      44.740  12.906  -4.917  1.00  0.00     0.112 C 
HETATM   18  C10         0      44.870  12.690  -3.551  1.00  0.00     0.112 C 
HETATM   19  C12         0      44.706  13.771  -2.693  1.00  0.00     0.028 C 
BRANCH  17  20
HETATM   20  O9          0      45.510  12.268  -5.872  1.00  0.00    -0.357 OA
HETATM   21  H9          0      45.792  12.676  -6.683  1.00  0.00     0.218 HD
ENDBRANCH  17  20
BRANCH  18  22
HETATM   22  O11         0      45.516  11.527  -3.158  1.00  0.00    -0.357 OA
HETATM   23  H11         0      46.447  11.470  -3.339  1.00  0.00     0.218 HD
ENDBRANCH  18  22
ENDBRANCH   4  14
BRANCH   8  24
HETATM   24  O17         0      48.526  20.093  -4.848  1.00  0.00    -0.359 OA
HETATM   25  H17         0      48.545  20.903  -5.344  1.00  0.00     0.218 HD
ENDBRANCH   8  24
TORSDOF 5
ENDMDL
MODEL 7
REMARK VINA RESULT:      -5.0     11.165     12.566
REMARK  5 active torsions:
REMARK  status: ('A' for Active; 'I' for Inactive)
REMARK    1  A    between atoms: C4_4  and  C5_5 
REMARK    2  A    between atoms: C8_8  and  O9_9 
REMARK    3  A    between atoms: C10_11  and  O11_12 
REMARK    4  A    between atoms: C16_18  and  O17_19 
REMARK    5  A    between atoms: C19_22  and  O20_23 
ROOT
HETATM    1  O1          0      51.306   8.744 -16.820  1.00  0.00    -0.286 OA
HETATM    2  C2          0      50.154   9.255 -16.752  1.00  0.00     0.201 C 
HETATM    3  C3          0      49.942  10.622 -16.703  1.00  0.00     0.067 C 
HETATM    4  C4          0      48.670  11.156 -16.525  1.00  0.00     0.103 C 
HETATM    5  O13         0      47.644  10.330 -16.422  1.00  0.00    -0.307 OA
HETATM    6  C14         0      47.795   9.024 -16.425  1.00  0.00     0.107 C 
HETATM    7  C15         0      46.818   8.174 -15.927  1.00  0.00     0.049 C 
HETATM    8  C16         0      47.080   6.829 -15.698  1.00  0.00     0.093 C 
HETATM    9  C18         0      48.115   6.295 -16.455  1.00  0.00     0.048 C 
HETATM   10  C19         0      49.084   7.121 -17.008  1.00  0.00     0.096 C 
HETATM   11  C21         0      49.010   8.475 -16.818  1.00  0.00     0.084 C 
ENDROOT
BRANCH  10  12
HETATM   12  O20         0      50.313   6.580 -17.373  1.00  0.00    -0.359 OA
HETATM   13  H20         0      51.081   6.848 -16.883  1.00  0.00     0.218 HD
ENDBRANCH  10  12
BRANCH   4  14
HETATM   14  C5          0      48.579  12.475 -15.896  1.00  0.00     0.025 C 
HETATM   15  C6          0      47.398  12.978 -15.371  1.00  0.00     0.004 C 
HETATM   16  C7          0      47.477  13.713 -14.193  1.00  0.00     0.026 C 
HETATM   17  C8          0      48.701  14.052 -13.626  1.00  0.00     0.112 C 
HETATM   18  C10         0      49.768  14.067 -14.515  1.00  0.00     0.112 C 
HETATM   19  C12         0      49.699  13.257 -15.642  1.00  0.00     0.028 C 
BRANCH  17  20
HETATM   20  O9          0      48.844  14.150 -12.253  1.00  0.00    -0.357 OA
HETATM   21  H9          0      48.614  14.924 -11.752  1.00  0.00     0.218 HD
ENDBRANCH  17  20
BRANCH  18  22
HETATM   22  O11         0      50.969  14.579 -14.046  1.00  0.00    -0.357 OA
HETATM   23  H11         0      51.530  13.985 -13.560  1.00  0.00     0.218 HD
ENDBRANCH  18  22
ENDBRANCH   4  14
BRANCH   8  24
HETATM   24  O17         0      46.579   6.170 -14.569  1.00  0.00    -0.359 OA
HETATM   25  H17         0      46.915   6.347 -13.698  1.00  0.00     0.218 HD
ENDBRANCH   8  24
TORSDOF 5
ENDMDL
MODEL 8
REMARK VINA RESULT:      -4.9     12.752     14.238
REMARK  5 active torsions:
REMARK  status: ('A' for Active; 'I' for Inactive)
REMARK    1  A    between atoms: C4_4  and  C5_5 
REMARK    2  A    between atoms: C8_8  and  O9_9 
REMARK    3  A    between atoms: C10_11  and  O11_12 
REMARK    4  A    between atoms: C16_18  and  O17_19 
REMARK    5  A    between atoms: C19_22  and  O20_23 
ROOT
HETATM    1  O1          0      51.056   5.488 -17.878  1.00  0.00    -0.286 OA
HETATM    2  C2          0      50.318   6.512 -17.894  1.00  0.00     0.201 C 
HETATM    3  C3          0      50.765   7.752 -18.316  1.00  0.00     0.067 C 
HETATM    4  C4          0      49.963   8.884 -18.226  1.00  0.00     0.103 C 
HETATM    5  O13         0      48.739   8.759 -17.744  1.00  0.00    -0.307 OA
HETATM    6  C14         0      48.279   7.612 -17.295  1.00  0.00     0.107 C 
HETATM    7  C15         0      47.188   7.546 -16.441  1.00  0.00     0.049 C 
HETATM    8  C16         0      46.864   6.372 -15.771  1.00  0.00     0.093 C 
HETATM    9  C18         0      47.316   5.207 -16.379  1.00  0.00     0.048 C 
HETATM   10  C19         0      48.376   5.243 -17.274  1.00  0.00     0.096 C 
HETATM   11  C21         0      48.971   6.438 -17.574  1.00  0.00     0.084 C 
ENDROOT
BRANCH  10  12
HETATM   12  O20         0      49.090   4.077 -17.531  1.00  0.00    -0.359 OA
HETATM   13  H20         0      48.790   3.518 -18.238  1.00  0.00     0.218 HD
ENDBRANCH  10  12
BRANCH   4  14
HETATM   14  C5          0      50.640  10.177 -18.103  1.00  0.00     0.025 C 
HETATM   15  C6          0      50.075  11.263 -17.452  1.00  0.00     0.004 C 
HETATM   16  C7          0      50.916  12.068 -16.691  1.00  0.00     0.026 C 
HETATM   17  C8          0      52.294  11.881 -16.684  1.00  0.00     0.112 C 
HETATM   18  C10         0      52.797  11.232 -17.804  1.00  0.00     0.112 C 
HETATM   19  C12         0      51.959  10.367 -18.497  1.00  0.00     0.028 C 
BRANCH  17  20
HETATM   20  O9          0      53.039  12.141 -15.548  1.00  0.00    -0.357 OA
HETATM   21  H9          0      53.384  12.998 -15.327  1.00  0.00     0.218 HD
ENDBRANCH  17  20
BRANCH  18  22
HETATM   22  O11         0      54.177  11.187 -17.938  1.00  0.00    -0.357 OA
HETATM   23  H11         0      54.620  12.012 -18.105  1.00  0.00     0.218 HD
ENDBRANCH  18  22
ENDBRANCH   4  14
BRANCH   8  24
HETATM   24  O17         0      46.428   6.387 -14.442  1.00  0.00    -0.359 OA
HETATM   25  H17         0      46.919   6.830 -13.760  1.00  0.00     0.218 HD
ENDBRANCH   8  24
TORSDOF 5
ENDMDL
MODEL 9
REMARK VINA RESULT:      -4.7     13.008     14.503
REMARK  5 active torsions:
REMARK  status: ('A' for Active; 'I' for Inactive)
REMARK    1  A    between atoms: C4_4  and  C5_5 
REMARK    2  A    between atoms: C8_8  and  O9_9 
REMARK    3  A    between atoms: C10_11  and  O11_12 
REMARK    4  A    between atoms: C16_18  and  O17_19 
REMARK    5  A    between atoms: C19_22  and  O20_23 
ROOT
HETATM    1  O1          0      47.081   8.193 -16.259  1.00  0.00    -0.286 OA
HETATM    2  C2          0      48.321   8.151 -16.489  1.00  0.00     0.201 C 
HETATM    3  C3          0      49.140   9.263 -16.390  1.00  0.00     0.067 C 
HETATM    4  C4          0      50.483   9.213 -16.748  1.00  0.00     0.103 C 
HETATM    5  O13         0      50.984   8.067 -17.173  1.00  0.00    -0.307 OA
HETATM    6  C14         0      50.242   6.991 -17.322  1.00  0.00     0.107 C 
HETATM    7  C15         0      50.643   5.931 -18.122  1.00  0.00     0.049 C 
HETATM    8  C16         0      49.757   4.921 -18.479  1.00  0.00     0.093 C 
HETATM    9  C18         0      48.690   4.742 -17.607  1.00  0.00     0.048 C 
HETATM   10  C19         0      48.292   5.766 -16.759  1.00  0.00     0.096 C 
HETATM   11  C21         0      48.966   6.956 -16.768  1.00  0.00     0.084 C 
ENDROOT
BRANCH  10  12
HETATM   12  O20         0      47.005   5.749 -16.229  1.00  0.00    -0.359 OA
HETATM   13  H20         0      46.276   5.687 -16.834  1.00  0.00     0.218 HD
ENDBRANCH  10  12
BRANCH   4  14
HETATM   14  C5          0      51.104  10.462 -17.192  1.00  0.00     0.025 C 
HETATM   15  C6          0      50.685  11.709 -16.751  1.00  0.00     0.004 C 
HETATM   16  C7          0      51.662  12.671 -16.515  1.00  0.00     0.026 C 
HETATM   17  C8          0      52.997  12.448 -16.833  1.00  0.00     0.112 C 
HETATM   18  C10         0      53.207  11.485 -17.811  1.00  0.00     0.112 C 
HETATM   19  C12         0      52.255  10.485 -17.969  1.00  0.00     0.028 C 
BRANCH  17  20
HETATM   20  O9          0      54.010  13.000 -16.068  1.00  0.00    -0.357 OA
HETATM   21  H9          0      53.925  13.196 -15.142  1.00  0.00     0.218 HD
ENDBRANCH  17  20
BRANCH  18  22
HETATM   22  O11         0      54.500  11.358 -18.300  1.00  0.00    -0.357 OA
HETATM   23  H11         0      54.830  12.071 -18.834  1.00  0.00     0.218 HD
ENDBRANCH  18  22
ENDBRANCH   4  14
BRANCH   8  24
HETATM   24  O17         0      49.756   4.374 -19.767  1.00  0.00    -0.359 OA
HETATM   25  H17         0      50.561   4.124 -20.204  1.00  0.00     0.218 HD
ENDBRANCH   8  24
TORSDOF 5
ENDMDL
