MODEL 1
REMARK VINA RESULT:      -5.1      0.000      0.000
REMARK  5 active torsions:
REMARK  status: ('A' for Active; 'I' for Inactive)
REMARK    1  A    between atoms: C4_4  and  C5_5 
REMARK    2  A    between atoms: C8_8  and  O9_9 
REMARK    3  A    between atoms: C10_11  and  O11_12 
REMARK    4  A    between atoms: C16_18  and  O17_19 
REMARK    5  A    between atoms: C19_22  and  O20_23 
ROOT
HETATM    1  O1          0      24.474  27.149  41.683  1.00  0.00    -0.286 OA
HETATM    2  C2          0      24.109  26.547  40.637  1.00  0.00     0.201 C 
HETATM    3  C3          0      23.931  27.191  39.424  1.00  0.00     0.067 C 
HETATM    4  C4          0      23.430  26.525  38.312  1.00  0.00     0.103 C 
HETATM    5  O13         0      23.137  25.240  38.420  1.00  0.00    -0.307 OA
HETATM    6  C14         0      23.252  24.591  39.557  1.00  0.00     0.107 C 
HETATM    7  C15         0      22.590  23.393  39.784  1.00  0.00     0.049 C 
HETATM    8  C16         0      22.507  22.845  41.059  1.00  0.00     0.093 C 
HETATM    9  C18         0      23.516  23.233  41.932  1.00  0.00     0.048 C 
HETATM   10  C19         0      24.230  24.402  41.708  1.00  0.00     0.096 C 
HETATM   11  C21         0      23.951  25.170  40.611  1.00  0.00     0.084 C 
ENDROOT
BRANCH  10  12
HETATM   12  O20         0      24.904  25.001  42.768  1.00  0.00    -0.359 OA
HETATM   13  H20         0      25.536  25.680  42.567  1.00  0.00     0.218 HD
ENDBRANCH  10  12
BRANCH   4  14
HETATM   14  C5          0      22.721  27.327  37.313  1.00  0.00     0.025 C 
HETATM   15  C6          0      22.233  28.598  37.579  1.00  0.00     0.004 C 
HETATM   16  C7          0      22.330  29.550  36.569  1.00  0.00     0.026 C 
HETATM   17  C8          0      22.773  29.218  35.294  1.00  0.00     0.112 C 
HETATM   18  C10         0      22.626  27.878  34.959  1.00  0.00     0.112 C 
HETATM   19  C12         0      22.617  26.939  35.984  1.00  0.00     0.028 C 
BRANCH  17  20
HETATM   20  O9          0      23.490  30.125  34.533  1.00  0.00    -0.357 OA
HETATM   21  H9          0      24.065  29.877  33.819  1.00  0.00     0.218 HD
ENDBRANCH  17  20
BRANCH  18  22
HETATM   22  O11         0      22.874  27.529  33.640  1.00  0.00    -0.357 OA
HETATM   23  H11         0      23.247  28.200  33.080  1.00  0.00     0.218 HD
ENDBRANCH  18  22
ENDBRANCH   4  14
BRANCH   8  24
HETATM   24  O17         0      21.332  22.236  41.516  1.00  0.00    -0.359 OA
HETATM   25  H17         0      21.263  21.882  42.394  1.00  0.00     0.218 HD
ENDBRANCH   8  24
TORSDOF 5
ENDMDL
MODEL 2
REMARK VINA RESULT:      -4.7      1.353      2.610
REMARK  5 active torsions:
REMARK  status: ('A' for Active; 'I' for Inactive)
REMARK    1  A    between atoms: C4_4  and  C5_5 
REMARK    2  A    between atoms: C8_8  and  O9_9 
REMARK    3  A    between atoms: C10_11  and  O11_12 
REMARK    4  A    between atoms: C16_18  and  O17_19 
REMARK    5  A    between atoms: C19_22  and  O20_23 
ROOT
HETATM    1  O1          0      23.731  23.492  38.898  1.00  0.00    -0.286 OA
HETATM    2  C2          0      23.180  24.592  39.176  1.00  0.00     0.201 C 
HETATM    3  C3          0      22.480  25.338  38.243  1.00  0.00     0.067 C 
HETATM    4  C4          0      21.971  26.594  38.549  1.00  0.00     0.103 C 
HETATM    5  O13         0      22.146  27.071  39.769  1.00  0.00    -0.307 OA
HETATM    6  C14         0      22.834  26.420  40.681  1.00  0.00     0.107 C 
HETATM    7  C15         0      23.357  27.059  41.796  1.00  0.00     0.049 C 
HETATM    8  C16         0      24.288  26.433  42.616  1.00  0.00     0.093 C 
HETATM    9  C18         0      24.253  25.044  42.590  1.00  0.00     0.048 C 
HETATM   10  C19         0      23.695  24.373  41.511  1.00  0.00     0.096 C 
HETATM   11  C21         0      23.159  25.084  40.472  1.00  0.00     0.084 C 
ENDROOT
BRANCH  10  12
HETATM   12  O20         0      24.043  23.046  41.281  1.00  0.00    -0.359 OA
HETATM   13  H20         0      24.021  22.446  42.017  1.00  0.00     0.218 HD
ENDBRANCH  10  12
BRANCH   4  14
HETATM   14  C5          0      21.804  27.537  37.441  1.00  0.00     0.025 C 
HETATM   15  C6          0      21.635  28.901  37.633  1.00  0.00     0.004 C 
HETATM   16  C7          0      22.257  29.760  36.733  1.00  0.00     0.026 C 
HETATM   17  C8          0      22.912  29.283  35.603  1.00  0.00     0.112 C 
HETATM   18  C10         0      22.493  28.031  35.175  1.00  0.00     0.112 C 
HETATM   19  C12         0      21.952  27.159  36.113  1.00  0.00     0.028 C 
BRANCH  17  20
HETATM   20  O9          0      24.027  29.932  35.103  1.00  0.00    -0.357 OA
HETATM   21  H9          0      24.307  30.795  35.386  1.00  0.00     0.218 HD
ENDBRANCH  17  20
BRANCH  18  22
HETATM   22  O11         0      22.975  27.591  33.950  1.00  0.00    -0.357 OA
HETATM   23  H11         0      23.379  26.731  33.931  1.00  0.00     0.218 HD
ENDBRANCH  18  22
ENDBRANCH   4  14
BRANCH   8  24
HETATM   24  O17         0      25.377  27.132  43.149  1.00  0.00    -0.359 OA
HETATM   25  H17         0      26.267  26.815  43.057  1.00  0.00     0.218 HD
ENDBRANCH   8  24
TORSDOF 5
ENDMDL
MODEL 3
REMARK VINA RESULT:      -4.6      1.689      2.268
REMARK  5 active torsions:
REMARK  status: ('A' for Active; 'I' for Inactive)
REMARK    1  A    between atoms: C4_4  and  C5_5 
REMARK    2  A    between atoms: C8_8  and  O9_9 
REMARK    3  A    between atoms: C10_11  and  O11_12 
REMARK    4  A    between atoms: C16_18  and  O17_19 
REMARK    5  A    between atoms: C19_22  and  O20_23 
ROOT
HETATM    1  O1          0      21.456  28.347  41.140  1.00  0.00    -0.286 OA
HETATM    2  C2          0      22.135  27.870  40.190  1.00  0.00     0.201 C 
HETATM    3  C3          0      21.931  28.229  38.868  1.00  0.00     0.067 C 
HETATM    4  C4          0      22.622  27.613  37.831  1.00  0.00     0.103 C 
HETATM    5  O13         0      23.508  26.678  38.126  1.00  0.00    -0.307 OA
HETATM    6  C14         0      23.713  26.274  39.360  1.00  0.00     0.107 C 
HETATM    7  C15         0      24.318  25.057  39.640  1.00  0.00     0.049 C 
HETATM    8  C16         0      24.303  24.521  40.922  1.00  0.00     0.093 C 
HETATM    9  C18         0      24.153  25.450  41.944  1.00  0.00     0.048 C 
HETATM   10  C19         0      23.595  26.695  41.690  1.00  0.00     0.096 C 
HETATM   11  C21         0      23.203  27.017  40.419  1.00  0.00     0.084 C 
ENDROOT
BRANCH  10  12
HETATM   12  O20         0      23.056  27.427  42.744  1.00  0.00    -0.359 OA
HETATM   13  H20         0      23.628  28.026  43.208  1.00  0.00     0.218 HD
ENDBRANCH  10  12
BRANCH   4  14
HETATM   14  C5          0      21.972  27.580  36.520  1.00  0.00     0.025 C 
HETATM   15  C6          0      21.550  28.725  35.860  1.00  0.00     0.004 C 
HETATM   16  C7          0      21.713  28.771  34.479  1.00  0.00     0.026 C 
HETATM   17  C8          0      22.154  27.665  33.760  1.00  0.00     0.112 C 
HETATM   18  C10         0      21.938  26.444  34.384  1.00  0.00     0.112 C 
HETATM   19  C12         0      21.864  26.415  35.771  1.00  0.00     0.028 C 
BRANCH  17  20
HETATM   20  O9          0      22.929  27.822  32.625  1.00  0.00    -0.357 OA
HETATM   21  H9          0      22.813  28.527  31.999  1.00  0.00     0.218 HD
ENDBRANCH  17  20
BRANCH  18  22
HETATM   22  O11         0      22.185  25.303  33.634  1.00  0.00    -0.357 OA
HETATM   23  H11         0      21.649  24.541  33.821  1.00  0.00     0.218 HD
ENDBRANCH  18  22
ENDBRANCH   4  14
BRANCH   8  24
HETATM   24  O17         0      24.111  23.152  41.138  1.00  0.00    -0.359 OA
HETATM   25  H17         0      23.247  22.758  41.109  1.00  0.00     0.218 HD
ENDBRANCH   8  24
TORSDOF 5
ENDMDL
MODEL 4
REMARK VINA RESULT:      -4.5      7.550      9.739
REMARK  5 active torsions:
REMARK  status: ('A' for Active; 'I' for Inactive)
REMARK    1  A    between atoms: C4_4  and  C5_5 
REMARK    2  A    between atoms: C8_8  and  O9_9 
REMARK    3  A    between atoms: C10_11  and  O11_12 
REMARK    4  A    between atoms: C16_18  and  O17_19 
REMARK    5  A    between atoms: C19_22  and  O20_23 
ROOT
HETATM    1  O1          0      21.875  20.422  34.651  1.00  0.00    -0.286 OA
HETATM    2  C2          0      22.607  20.623  33.644  1.00  0.00     0.201 C 
HETATM    3  C3          0      23.808  19.963  33.445  1.00  0.00     0.067 C 
HETATM    4  C4          0      24.644  20.277  32.379  1.00  0.00     0.103 C 
HETATM    5  O13         0      24.265  21.216  31.530  1.00  0.00    -0.307 OA
HETATM    6  C14         0      23.153  21.898  31.693  1.00  0.00     0.107 C 
HETATM    7  C15         0      22.946  23.119  31.067  1.00  0.00     0.049 C 
HETATM    8  C16         0      21.895  23.950  31.436  1.00  0.00     0.093 C 
HETATM    9  C18         0      20.816  23.305  32.028  1.00  0.00     0.048 C 
HETATM   10  C19         0      20.978  22.061  32.623  1.00  0.00     0.096 C 
HETATM   11  C21         0      22.206  21.458  32.612  1.00  0.00     0.084 C 
ENDROOT
BRANCH  10  12
HETATM   12  O20         0      20.049  21.632  33.566  1.00  0.00    -0.359 OA
HETATM   13  H20         0      19.222  22.096  33.620  1.00  0.00     0.218 HD
ENDBRANCH  10  12
BRANCH   4  14
HETATM   14  C5          0      26.075  20.019  32.552  1.00  0.00     0.025 C 
HETATM   15  C6          0      26.877  19.520  31.536  1.00  0.00     0.004 C 
HETATM   16  C7          0      28.171  20.022  31.432  1.00  0.00     0.026 C 
HETATM   17  C8          0      28.696  20.889  32.383  1.00  0.00     0.112 C 
HETATM   18  C10         0      28.088  20.820  33.629  1.00  0.00     0.112 C 
HETATM   19  C12         0      26.766  20.396  33.696  1.00  0.00     0.028 C 
BRANCH  17  20
HETATM   20  O9          0      29.601  21.872  32.023  1.00  0.00    -0.357 OA
HETATM   21  H9          0      30.544  21.758  32.055  1.00  0.00     0.218 HD
ENDBRANCH  17  20
BRANCH  18  22
HETATM   22  O11         0      28.691  21.522  34.663  1.00  0.00    -0.357 OA
HETATM   23  H11         0      28.178  22.208  35.074  1.00  0.00     0.218 HD
ENDBRANCH  18  22
ENDBRANCH   4  14
BRANCH   8  24
HETATM   24  O17         0      22.056  25.338  31.515  1.00  0.00    -0.359 OA
HETATM   25  H17         0      22.829  25.729  31.904  1.00  0.00     0.218 HD
ENDBRANCH   8  24
TORSDOF 5
ENDMDL
MODEL 5
REMARK VINA RESULT:      -4.4      2.424      6.847
REMARK  5 active torsions:
REMARK  status: ('A' for Active; 'I' for Inactive)
REMARK    1  A    between atoms: C4_4  and  C5_5 
REMARK    2  A    between atoms: C8_8  and  O9_9 
REMARK    3  A    between atoms: C10_11  and  O11_12 
REMARK    4  A    between atoms: C16_18  and  O17_19 
REMARK    5  A    between atoms: C19_22  and  O20_23 
ROOT
HETATM    1  O1          0      21.197  23.826  40.031  1.00  0.00    -0.286 OA
HETATM    2  C2          0      22.286  24.448  40.167  1.00  0.00     0.201 C 
HETATM    3  C3          0      23.034  24.405  41.330  1.00  0.00     0.067 C 
HETATM    4  C4          0      24.177  25.181  41.491  1.00  0.00     0.103 C 
HETATM    5  O13         0      24.560  25.960  40.494  1.00  0.00    -0.307 OA
HETATM    6  C14         0      23.865  26.066  39.383  1.00  0.00     0.107 C 
HETATM    7  C15         0      24.022  27.144  38.523  1.00  0.00     0.049 C 
HETATM    8  C16         0      23.119  27.383  37.494  1.00  0.00     0.093 C 
HETATM    9  C18         0      22.420  26.266  37.054  1.00  0.00     0.048 C 
HETATM   10  C19         0      22.284  25.152  37.871  1.00  0.00     0.096 C 
HETATM   11  C21         0      22.856  25.148  39.114  1.00  0.00     0.084 C 
ENDROOT
BRANCH  10  12
HETATM   12  O20         0      21.255  24.248  37.624  1.00  0.00    -0.359 OA
HETATM   13  H20         0      20.822  24.287  36.780  1.00  0.00     0.218 HD
ENDBRANCH  10  12
BRANCH   4  14
HETATM   14  C5          0      24.549  25.551  42.857  1.00  0.00     0.025 C 
HETATM   15  C6          0      25.322  24.737  43.672  1.00  0.00     0.004 C 
HETATM   16  C7          0      26.258  25.353  44.497  1.00  0.00     0.026 C 
HETATM   17  C8          0      26.332  26.737  44.610  1.00  0.00     0.112 C 
HETATM   18  C10         0      25.163  27.409  44.281  1.00  0.00     0.112 C 
HETATM   19  C12         0      24.284  26.807  43.387  1.00  0.00     0.028 C 
BRANCH  17  20
HETATM   20  O9          0      27.545  27.367  44.826  1.00  0.00    -0.357 OA
HETATM   21  H9          0      27.766  28.221  44.474  1.00  0.00     0.218 HD
ENDBRANCH  17  20
BRANCH  18  22
HETATM   22  O11         0      25.121  28.769  44.555  1.00  0.00    -0.357 OA
HETATM   23  H11         0      25.954  29.209  44.675  1.00  0.00     0.218 HD
ENDBRANCH  18  22
ENDBRANCH   4  14
BRANCH   8  24
HETATM   24  O17         0      22.708  28.682  37.173  1.00  0.00    -0.359 OA
HETATM   25  H17         0      22.022  28.845  36.535  1.00  0.00     0.218 HD
ENDBRANCH   8  24
TORSDOF 5
ENDMDL
MODEL 6
REMARK VINA RESULT:      -4.1      2.442      4.287
REMARK  5 active torsions:
REMARK  status: ('A' for Active; 'I' for Inactive)
REMARK    1  A    between atoms: C4_4  and  C5_5 
REMARK    2  A    between atoms: C8_8  and  O9_9 
REMARK    3  A    between atoms: C10_11  and  O11_12 
REMARK    4  A    between atoms: C16_18  and  O17_19 
REMARK    5  A    between atoms: C19_22  and  O20_23 
ROOT
HETATM    1  O1          0      21.941  23.370  36.835  1.00  0.00    -0.286 OA
HETATM    2  C2          0      21.816  24.626  36.847  1.00  0.00     0.201 C 
HETATM    3  C3          0      21.027  25.309  35.937  1.00  0.00     0.067 C 
HETATM    4  C4          0      20.988  26.699  35.907  1.00  0.00     0.103 C 
HETATM    5  O13         0      21.708  27.373  36.785  1.00  0.00    -0.307 OA
HETATM    6  C14         0      22.502  26.774  37.645  1.00  0.00     0.107 C 
HETATM    7  C15         0      23.536  27.449  38.278  1.00  0.00     0.049 C 
HETATM    8  C16         0      24.521  26.765  38.981  1.00  0.00     0.093 C 
HETATM    9  C18         0      24.142  25.515  39.456  1.00  0.00     0.048 C 
HETATM   10  C19         0      23.081  24.832  38.876  1.00  0.00     0.096 C 
HETATM   11  C21         0      22.392  25.402  37.840  1.00  0.00     0.084 C 
ENDROOT
BRANCH  10  12
HETATM   12  O20         0      22.986  23.454  39.043  1.00  0.00    -0.359 OA
HETATM   13  H20         0      22.514  22.958  38.386  1.00  0.00     0.218 HD
ENDBRANCH  10  12
BRANCH   4  14
HETATM   14  C5          0      20.662  27.332  34.628  1.00  0.00     0.025 C 
HETATM   15  C6          0      21.142  28.582  34.263  1.00  0.00     0.004 C 
HETATM   16  C7          0      21.502  28.771  32.933  1.00  0.00     0.026 C 
HETATM   17  C8          0      21.269  27.797  31.969  1.00  0.00     0.112 C 
HETATM   18  C10         0      20.255  26.902  32.282  1.00  0.00     0.112 C 
HETATM   19  C12         0      19.972  26.667  33.622  1.00  0.00     0.028 C 
BRANCH  17  20
HETATM   20  O9          0      22.135  27.634  30.902  1.00  0.00    -0.357 OA
HETATM   21  H9          0      23.051  27.398  30.996  1.00  0.00     0.218 HD
ENDBRANCH  17  20
BRANCH  18  22
HETATM   22  O11         0      19.854  26.030  31.279  1.00  0.00    -0.357 OA
HETATM   23  H11         0      19.473  26.417  30.500  1.00  0.00     0.218 HD
ENDBRANCH  18  22
ENDBRANCH   4  14
BRANCH   8  24
HETATM   24  O17         0      25.864  27.152  38.919  1.00  0.00    -0.359 OA
HETATM   25  H17         0      26.548  26.542  38.667  1.00  0.00     0.218 HD
ENDBRANCH   8  24
TORSDOF 5
ENDMDL
MODEL 7
REMARK VINA RESULT:      -4.0      3.877      7.564
REMARK  5 active torsions:
REMARK  status: ('A' for Active; 'I' for Inactive)
REMARK    1  A    between atoms: C4_4  and  C5_5 
REMARK    2  A    between atoms: C8_8  and  O9_9 
REMARK    3  A    between atoms: C10_11  and  O11_12 
REMARK    4  A    between atoms: C16_18  and  O17_19 
REMARK    5  A    between atoms: C19_22  and  O20_23 
ROOT
HETATM    1  O1          0      21.010  27.218  43.219  1.00  0.00    -0.286 OA
HETATM    2  C2          0      22.183  26.988  42.814  1.00  0.00     0.201 C 
HETATM    3  C3          0      23.269  26.908  43.668  1.00  0.00     0.067 C 
HETATM    4  C4          0      24.565  26.756  43.187  1.00  0.00     0.103 C 
HETATM    5  O13         0      24.751  26.667  41.882  1.00  0.00    -0.307 OA
HETATM    6  C14         0      23.759  26.775  41.026  1.00  0.00     0.107 C 
HETATM    7  C15         0      23.976  27.082  39.690  1.00  0.00     0.049 C 
HETATM    8  C16         0      22.927  27.444  38.853  1.00  0.00     0.093 C 
HETATM    9  C18         0      21.677  26.978  39.243  1.00  0.00     0.048 C 
HETATM   10  C19         0      21.439  26.617  40.562  1.00  0.00     0.096 C 
HETATM   11  C21         0      22.447  26.706  41.483  1.00  0.00     0.084 C 
ENDROOT
BRANCH  10  12
HETATM   12  O20         0      20.129  26.578  41.030  1.00  0.00    -0.359 OA
HETATM   13  H20         0      19.988  26.663  41.965  1.00  0.00     0.218 HD
ENDBRANCH  10  12
BRANCH   4  14
HETATM   14  C5          0      25.653  27.269  44.021  1.00  0.00     0.025 C 
HETATM   15  C6          0      26.318  28.455  43.744  1.00  0.00     0.004 C 
HETATM   16  C7          0      26.679  29.258  44.821  1.00  0.00     0.026 C 
HETATM   17  C8          0      26.508  28.837  46.135  1.00  0.00     0.112 C 
HETATM   18  C10         0      26.447  27.459  46.298  1.00  0.00     0.112 C 
HETATM   19  C12         0      26.001  26.687  45.233  1.00  0.00     0.028 C 
BRANCH  17  20
HETATM   20  O9          0      26.213  29.743  47.137  1.00  0.00    -0.357 OA
HETATM   21  H9          0      26.846  30.047  47.777  1.00  0.00     0.218 HD
ENDBRANCH  17  20
BRANCH  18  22
HETATM   22  O11         0      26.468  26.980  47.600  1.00  0.00    -0.357 OA
HETATM   23  H11         0      25.799  26.346  47.836  1.00  0.00     0.218 HD
ENDBRANCH  18  22
ENDBRANCH   4  14
BRANCH   8  24
HETATM   24  O17         0      23.070  28.463  37.904  1.00  0.00    -0.359 OA
HETATM   25  H17         0      22.611  29.290  37.988  1.00  0.00     0.218 HD
ENDBRANCH   8  24
TORSDOF 5
ENDMDL
MODEL 8
REMARK VINA RESULT:      -4.0      5.212      8.622
REMARK  5 active torsions:
REMARK  status: ('A' for Active; 'I' for Inactive)
REMARK    1  A    between atoms: C4_4  and  C5_5 
REMARK    2  A    between atoms: C8_8  and  O9_9 
REMARK    3  A    between atoms: C10_11  and  O11_12 
REMARK    4  A    between atoms: C16_18  and  O17_19 
REMARK    5  A    between atoms: C19_22  and  O20_23 
ROOT
HETATM    1  O1          0      28.101  24.414  45.333  1.00  0.00    -0.286 OA
HETATM    2  C2          0      27.008  23.978  44.877  1.00  0.00     0.201 C 
HETATM    3  C3          0      26.733  22.627  44.752  1.00  0.00     0.067 C 
HETATM    4  C4          0      25.564  22.174  44.151  1.00  0.00     0.103 C 
HETATM    5  O13         0      24.692  23.063  43.709  1.00  0.00    -0.307 OA
HETATM    6  C14         0      24.921  24.356  43.768  1.00  0.00     0.107 C 
HETATM    7  C15         0      24.231  25.258  42.972  1.00  0.00     0.049 C 
HETATM    8  C16         0      24.646  26.579  42.850  1.00  0.00     0.093 C 
HETATM    9  C18         0      25.397  27.059  43.916  1.00  0.00     0.048 C 
HETATM   10  C19         0      26.063  26.182  44.762  1.00  0.00     0.096 C 
HETATM   11  C21         0      25.966  24.833  44.553  1.00  0.00     0.084 C 
ENDROOT
BRANCH  10  12
HETATM   12  O20         0      27.129  26.649  45.524  1.00  0.00    -0.359 OA
HETATM   13  H20         0      27.620  27.391  45.194  1.00  0.00     0.218 HD
ENDBRANCH  10  12
BRANCH   4  14
HETATM   14  C5          0      25.602  20.852  43.524  1.00  0.00     0.025 C 
HETATM   15  C6          0      26.193  19.751  44.126  1.00  0.00     0.004 C 
HETATM   16  C7          0      25.568  18.518  43.970  1.00  0.00     0.026 C 
HETATM   17  C8          0      24.468  18.358  43.134  1.00  0.00     0.112 C 
HETATM   18  C10         0      24.358  19.313  42.132  1.00  0.00     0.112 C 
HETATM   19  C12         0      24.920  20.565  42.349  1.00  0.00     0.028 C 
BRANCH  17  20
HETATM   20  O9          0      23.474  17.445  43.437  1.00  0.00    -0.357 OA
HETATM   21  H9          0      23.326  17.095  44.309  1.00  0.00     0.218 HD
ENDBRANCH  17  20
BRANCH  18  22
HETATM   22  O11         0      23.392  19.095  41.160  1.00  0.00    -0.357 OA
HETATM   23  H11         0      22.660  18.539  41.398  1.00  0.00     0.218 HD
ENDBRANCH  18  22
ENDBRANCH   4  14
BRANCH   8  24
HETATM   24  O17         0      24.603  27.246  41.621  1.00  0.00    -0.359 OA
HETATM   25  H17         0      25.330  27.215  41.010  1.00  0.00     0.218 HD
ENDBRANCH   8  24
TORSDOF 5
ENDMDL
MODEL 9
REMARK VINA RESULT:      -3.9      3.819      6.676
REMARK  5 active torsions:
REMARK  status: ('A' for Active; 'I' for Inactive)
REMARK    1  A    between atoms: C4_4  and  C5_5 
REMARK    2  A    between atoms: C8_8  and  O9_9 
REMARK    3  A    between atoms: C10_11  and  O11_12 
REMARK    4  A    between atoms: C16_18  and  O17_19 
REMARK    5  A    between atoms: C19_22  and  O20_23 
ROOT
HETATM    1  O1          0      18.564  23.879  35.486  1.00  0.00    -0.286 OA
HETATM    2  C2          0      19.791  23.722  35.732  1.00  0.00     0.201 C 
HETATM    3  C3          0      20.356  24.033  36.957  1.00  0.00     0.067 C 
HETATM    4  C4          0      21.727  23.948  37.170  1.00  0.00     0.103 C 
HETATM    5  O13         0      22.499  23.540  36.178  1.00  0.00    -0.307 OA
HETATM    6  C14         0      22.019  23.269  34.984  1.00  0.00     0.107 C 
HETATM    7  C15         0      22.831  23.235  33.860  1.00  0.00     0.049 C 
HETATM    8  C16         0      22.290  23.202  32.580  1.00  0.00     0.093 C 
HETATM    9  C18         0      21.004  22.681  32.499  1.00  0.00     0.048 C 
HETATM   10  C19         0      20.181  22.657  33.616  1.00  0.00     0.096 C 
HETATM   11  C21         0      20.645  23.134  34.812  1.00  0.00     0.084 C 
ENDROOT
BRANCH  10  12
HETATM   12  O20         0      18.804  22.554  33.445  1.00  0.00    -0.359 OA
HETATM   13  H20         0      18.321  23.346  33.242  1.00  0.00     0.218 HD
ENDBRANCH  10  12
BRANCH   4  14
HETATM   14  C5          0      22.301  24.818  38.197  1.00  0.00     0.025 C 
HETATM   15  C6          0      23.204  24.365  39.148  1.00  0.00     0.004 C 
HETATM   16  C7          0      24.247  25.215  39.504  1.00  0.00     0.026 C 
HETATM   17  C8          0      24.316  26.522  39.033  1.00  0.00     0.112 C 
HETATM   18  C10         0      23.098  27.060  38.637  1.00  0.00     0.112 C 
HETATM   19  C12         0      22.102  26.193  38.205  1.00  0.00     0.028 C 
BRANCH  17  20
HETATM   20  O9          0      25.537  27.125  38.792  1.00  0.00    -0.357 OA
HETATM   21  H9          0      25.643  28.054  38.623  1.00  0.00     0.218 HD
ENDBRANCH  17  20
BRANCH  18  22
HETATM   22  O11         0      23.078  28.415  38.338  1.00  0.00    -0.357 OA
HETATM   23  H11         0      22.455  28.701  37.680  1.00  0.00     0.218 HD
ENDBRANCH  18  22
ENDBRANCH   4  14
BRANCH   8  24
HETATM   24  O17         0      22.853  23.939  31.532  1.00  0.00    -0.359 OA
HETATM   25  H17         0      22.942  24.883  31.577  1.00  0.00     0.218 HD
ENDBRANCH   8  24
TORSDOF 5
ENDMDL
