MODEL 1
REMARK VINA RESULT:      -0.0      0.000      0.000
REMARK  5 active torsions:
REMARK  status: ('A' for Active; 'I' for Inactive)
REMARK    1  A    between atoms: C4_4  and  C5_5 
REMARK    2  A    between atoms: C8_8  and  O9_9 
REMARK    3  A    between atoms: C10_11  and  O11_12 
REMARK    4  A    between atoms: C16_18  and  O17_19 
REMARK    5  A    between atoms: C19_22  and  O20_23 
ROOT
HETATM    1  O1          0      65.701  89.537  10.006  1.00  0.00    -0.286 OA
HETATM    2  C2          0      64.704  89.973  10.643  1.00  0.00     0.201 C 
HETATM    3  C3          0      63.771  90.830  10.083  1.00  0.00     0.067 C 
HETATM    4  C4          0      62.739  91.376  10.837  1.00  0.00     0.103 C 
HETATM    5  O13         0      62.642  91.048  12.113  1.00  0.00    -0.307 OA
HETATM    6  C14         0      63.522  90.269  12.703  1.00  0.00     0.107 C 
HETATM    7  C15         0      63.665  90.241  14.083  1.00  0.00     0.049 C 
HETATM    8  C16         0      64.752  89.619  14.684  1.00  0.00     0.093 C 
HETATM    9  C18         0      65.351  88.621  13.924  1.00  0.00     0.048 C 
HETATM   10  C19         0      65.190  88.591  12.545  1.00  0.00     0.096 C 
HETATM   11  C21         0      64.422  89.543  11.931  1.00  0.00     0.084 C 
ENDROOT
BRANCH  10  12
HETATM   12  O20         0      66.108  87.892  11.768  1.00  0.00    -0.359 OA
HETATM   13  H20         0      65.938  87.819  10.837  1.00  0.00     0.218 HD
ENDBRANCH  10  12
BRANCH   4  14
HETATM   14  C5          0      62.198  92.664  10.398  1.00  0.00     0.025 C 
HETATM   15  C6          0      61.600  93.565  11.267  1.00  0.00     0.004 C 
HETATM   16  C7          0      61.842  94.919  11.059  1.00  0.00     0.026 C 
HETATM   17  C8          0      62.543  95.372   9.947  1.00  0.00     0.112 C 
HETATM   18  C10         0      62.535  94.504   8.863  1.00  0.00     0.112 C 
HETATM   19  C12         0      62.376  93.145   9.107  1.00  0.00     0.028 C 
BRANCH  17  20
HETATM   20  O9          0      63.346  96.496  10.025  1.00  0.00    -0.357 OA
HETATM   21  H9          0      64.268  96.503   9.797  1.00  0.00     0.218 HD
ENDBRANCH  17  20
BRANCH  18  22
HETATM   22  O11         0      63.055  94.984   7.670  1.00  0.00    -0.357 OA
HETATM   23  H11         0      62.523  95.607   7.188  1.00  0.00     0.218 HD
ENDBRANCH  18  22
ENDBRANCH   4  14
BRANCH   8  24
HETATM   24  O17         0      65.390  90.179  15.796  1.00  0.00    -0.359 OA
HETATM   25  H17         0      66.246  89.883  16.082  1.00  0.00     0.218 HD
ENDBRANCH   8  24
TORSDOF 5
ENDMDL
MODEL 2
REMARK VINA RESULT:      -0.0     11.156     12.107
REMARK  5 active torsions:
REMARK  status: ('A' for Active; 'I' for Inactive)
REMARK    1  A    between atoms: C4_4  and  C5_5 
REMARK    2  A    between atoms: C8_8  and  O9_9 
REMARK    3  A    between atoms: C10_11  and  O11_12 
REMARK    4  A    between atoms: C16_18  and  O17_19 
REMARK    5  A    between atoms: C19_22  and  O20_23 
ROOT
HETATM    1  O1          0      73.717  90.228  10.626  1.00  0.00    -0.286 OA
HETATM    2  C2          0      74.298  89.398   9.876  1.00  0.00     0.201 C 
HETATM    3  C3          0      74.732  89.714   8.599  1.00  0.00     0.067 C 
HETATM    4  C4          0      75.277  88.753   7.756  1.00  0.00     0.103 C 
HETATM    5  O13         0      75.398  87.514   8.199  1.00  0.00    -0.307 OA
HETATM    6  C14         0      74.969  87.152   9.388  1.00  0.00     0.107 C 
HETATM    7  C15         0      74.724  85.824   9.704  1.00  0.00     0.049 C 
HETATM    8  C16         0      74.036  85.471  10.858  1.00  0.00     0.093 C 
HETATM    9  C18         0      74.090  86.408  11.883  1.00  0.00     0.048 C 
HETATM   10  C19         0      74.378  87.738  11.608  1.00  0.00     0.096 C 
HETATM   11  C21         0      74.628  88.127  10.321  1.00  0.00     0.084 C 
ENDROOT
BRANCH  10  12
HETATM   12  O20         0      74.010  88.718  12.526  1.00  0.00    -0.359 OA
HETATM   13  H20         0      73.324  88.509  13.149  1.00  0.00     0.218 HD
ENDBRANCH  10  12
BRANCH   4  14
HETATM   14  C5          0      75.147  88.976   6.314  1.00  0.00     0.025 C 
HETATM   15  C6          0      75.130  87.940   5.392  1.00  0.00     0.004 C 
HETATM   16  C7          0      74.269  88.059   4.305  1.00  0.00     0.026 C 
HETATM   17  C8          0      73.548  89.225   4.070  1.00  0.00     0.112 C 
HETATM   18  C10         0      74.093  90.368   4.640  1.00  0.00     0.112 C 
HETATM   19  C12         0      74.881  90.228   5.776  1.00  0.00     0.028 C 
BRANCH  17  20
HETATM   20  O9          0      72.290  89.177   3.496  1.00  0.00    -0.357 OA
HETATM   21  H9          0      71.537  89.645   3.836  1.00  0.00     0.218 HD
ENDBRANCH  17  20
BRANCH  18  22
HETATM   22  O11         0      73.523  91.581   4.281  1.00  0.00    -0.357 OA
HETATM   23  H11         0      72.594  91.578   4.080  1.00  0.00     0.218 HD
ENDBRANCH  18  22
ENDBRANCH   4  14
BRANCH   8  24
HETATM   24  O17         0      73.099  84.432  10.860  1.00  0.00    -0.359 OA
HETATM   25  H17         0      73.365  83.520  10.856  1.00  0.00     0.218 HD
ENDBRANCH   8  24
TORSDOF 5
ENDMDL
MODEL 3
REMARK VINA RESULT:       0.0      7.498      9.650
REMARK  5 active torsions:
REMARK  status: ('A' for Active; 'I' for Inactive)
REMARK    1  A    between atoms: C4_4  and  C5_5 
REMARK    2  A    between atoms: C8_8  and  O9_9 
REMARK    3  A    between atoms: C10_11  and  O11_12 
REMARK    4  A    between atoms: C16_18  and  O17_19 
REMARK    5  A    between atoms: C19_22  and  O20_23 
ROOT
HETATM    1  O1          0      68.416  98.332  11.380  1.00  0.00    -0.286 OA
HETATM    2  C2          0      69.129  97.656  10.588  1.00  0.00     0.201 C 
HETATM    3  C3          0      68.647  96.559   9.895  1.00  0.00     0.067 C 
HETATM    4  C4          0      69.480  95.770   9.110  1.00  0.00     0.103 C 
HETATM    5  O13         0      70.757  96.096   9.013  1.00  0.00    -0.307 OA
HETATM    6  C14         0      71.273  97.106   9.679  1.00  0.00     0.107 C 
HETATM    7  C15         0      72.638  97.212   9.902  1.00  0.00     0.049 C 
HETATM    8  C16         0      73.151  98.128  10.813  1.00  0.00     0.093 C 
HETATM    9  C18         0      72.341  99.230  11.057  1.00  0.00     0.048 C 
HETATM   10  C19         0      70.977  99.173  10.800  1.00  0.00     0.096 C 
HETATM   11  C21         0      70.430  98.029  10.287  1.00  0.00     0.084 C 
ENDROOT
BRANCH  10  12
HETATM   12  O20         0      70.128 100.076  11.433  1.00  0.00    -0.359 OA
HETATM   13  H20         0      69.198 100.014  11.253  1.00  0.00     0.218 HD
ENDBRANCH  10  12
BRANCH   4  14
HETATM   14  C5          0      69.093  94.371   8.919  1.00  0.00     0.025 C 
HETATM   15  C6          0      70.013  93.366   8.657  1.00  0.00     0.004 C 
HETATM   16  C7          0      69.800  92.126   9.251  1.00  0.00     0.026 C 
HETATM   17  C8          0      68.643  91.852   9.973  1.00  0.00     0.112 C 
HETATM   18  C10         0      67.555  92.652   9.649  1.00  0.00     0.112 C 
HETATM   19  C12         0      67.797  93.921   9.136  1.00  0.00     0.028 C 
BRANCH  17  20
HETATM   20  O9          0      68.671  90.997  11.059  1.00  0.00    -0.357 OA
HETATM   21  H9          0      68.309  91.213  11.911  1.00  0.00     0.218 HD
ENDBRANCH  17  20
BRANCH  18  22
HETATM   22  O11         0      66.331  92.300  10.199  1.00  0.00    -0.357 OA
HETATM   23  H11         0      65.707  93.002  10.345  1.00  0.00     0.218 HD
ENDBRANCH  18  22
ENDBRANCH   4  14
BRANCH   8  24
HETATM   24  O17         0      74.219  97.799  11.655  1.00  0.00    -0.359 OA
HETATM   25  H17         0      74.293  96.941  12.055  1.00  0.00     0.218 HD
ENDBRANCH   8  24
TORSDOF 5
ENDMDL
MODEL 4
REMARK VINA RESULT:       0.0      7.936      8.953
REMARK  5 active torsions:
REMARK  status: ('A' for Active; 'I' for Inactive)
REMARK    1  A    between atoms: C4_4  and  C5_5 
REMARK    2  A    between atoms: C8_8  and  O9_9 
REMARK    3  A    between atoms: C10_11  and  O11_12 
REMARK    4  A    between atoms: C16_18  and  O17_19 
REMARK    5  A    between atoms: C19_22  and  O20_23 
ROOT
HETATM    1  O1          0      67.994  93.021  12.968  1.00  0.00    -0.286 OA
HETATM    2  C2          0      69.183  93.145  13.371  1.00  0.00     0.201 C 
HETATM    3  C3          0      69.578  94.142  14.247  1.00  0.00     0.067 C 
HETATM    4  C4          0      70.912  94.320  14.595  1.00  0.00     0.103 C 
HETATM    5  O13         0      71.815  93.500  14.087  1.00  0.00    -0.307 OA
HETATM    6  C14         0      71.499  92.561  13.222  1.00  0.00     0.107 C 
HETATM    7  C15         0      72.450  91.977  12.397  1.00  0.00     0.049 C 
HETATM    8  C16         0      72.079  91.181  11.320  1.00  0.00     0.093 C 
HETATM    9  C18         0      70.828  90.586  11.433  1.00  0.00     0.048 C 
HETATM   10  C19         0      69.869  91.117  12.284  1.00  0.00     0.096 C 
HETATM   11  C21         0      70.163  92.225  13.032  1.00  0.00     0.084 C 
ENDROOT
BRANCH  10  12
HETATM   12  O20         0      68.528  90.808  12.076  1.00  0.00    -0.359 OA
HETATM   13  H20         0      68.000  91.426  11.586  1.00  0.00     0.218 HD
ENDBRANCH  10  12
BRANCH   4  14
HETATM   14  C5          0      71.327  95.666  14.991  1.00  0.00     0.025 C 
HETATM   15  C6          0      72.627  96.127  14.842  1.00  0.00     0.004 C 
HETATM   16  C7          0      72.801  97.452  14.456  1.00  0.00     0.026 C 
HETATM   17  C8          0      71.726  98.329  14.352  1.00  0.00     0.112 C 
HETATM   18  C10         0      70.615  97.976  15.107  1.00  0.00     0.112 C 
HETATM   19  C12         0      70.420  96.633  15.406  1.00  0.00     0.028 C 
BRANCH  17  20
HETATM   20  O9          0      71.723  99.337  13.404  1.00  0.00    -0.357 OA
HETATM   21  H9          0      71.001  99.942  13.279  1.00  0.00     0.218 HD
ENDBRANCH  17  20
BRANCH  18  22
HETATM   22  O11         0      69.590  98.907  15.189  1.00  0.00    -0.357 OA
HETATM   23  H11         0      69.729  99.740  14.752  1.00  0.00     0.218 HD
ENDBRANCH  18  22
ENDBRANCH   4  14
BRANCH   8  24
HETATM   24  O17         0      72.754  91.250  10.096  1.00  0.00    -0.359 OA
HETATM   25  H17         0      73.692  91.113  10.035  1.00  0.00     0.218 HD
ENDBRANCH   8  24
TORSDOF 5
ENDMDL
MODEL 5
REMARK VINA RESULT:       0.0      7.679     10.214
REMARK  5 active torsions:
REMARK  status: ('A' for Active; 'I' for Inactive)
REMARK    1  A    between atoms: C4_4  and  C5_5 
REMARK    2  A    between atoms: C8_8  and  O9_9 
REMARK    3  A    between atoms: C10_11  and  O11_12 
REMARK    4  A    between atoms: C16_18  and  O17_19 
REMARK    5  A    between atoms: C19_22  and  O20_23 
ROOT
HETATM    1  O1          0      67.623  85.285  12.084  1.00  0.00    -0.286 OA
HETATM    2  C2          0      68.580  85.991  12.503  1.00  0.00     0.201 C 
HETATM    3  C3          0      69.717  86.237  11.752  1.00  0.00     0.067 C 
HETATM    4  C4          0      70.800  86.932  12.276  1.00  0.00     0.103 C 
HETATM    5  O13         0      70.725  87.384  13.516  1.00  0.00    -0.307 OA
HETATM    6  C14         0      69.685  87.146  14.285  1.00  0.00     0.107 C 
HETATM    7  C15         0      69.756  87.255  15.666  1.00  0.00     0.049 C 
HETATM    8  C16         0      68.745  86.763  16.482  1.00  0.00     0.093 C 
HETATM    9  C18         0      67.498  86.666  15.877  1.00  0.00     0.048 C 
HETATM   10  C19         0      67.387  86.602  14.495  1.00  0.00     0.096 C 
HETATM   11  C21         0      68.514  86.652  13.721  1.00  0.00     0.084 C 
ENDROOT
BRANCH  10  12
HETATM   12  O20         0      66.229  86.079  13.929  1.00  0.00    -0.359 OA
HETATM   13  H20         0      65.424  86.132  14.431  1.00  0.00     0.218 HD
ENDBRANCH  10  12
BRANCH   4  14
HETATM   14  C5          0      72.119  86.643  11.710  1.00  0.00     0.025 C 
HETATM   15  C6          0      73.297  86.807  12.425  1.00  0.00     0.004 C 
HETATM   16  C7          0      74.301  85.863  12.238  1.00  0.00     0.026 C 
HETATM   17  C8          0      74.194  84.866  11.274  1.00  0.00     0.112 C 
HETATM   18  C10         0      73.328  85.159  10.230  1.00  0.00     0.112 C 
HETATM   19  C12         0      72.281  86.042  10.469  1.00  0.00     0.028 C 
BRANCH  17  20
HETATM   20  O9          0      74.752  83.617  11.482  1.00  0.00    -0.357 OA
HETATM   21  H9          0      74.257  82.806  11.456  1.00  0.00     0.218 HD
ENDBRANCH  17  20
BRANCH  18  22
HETATM   22  O11         0      73.326  84.287   9.151  1.00  0.00    -0.357 OA
HETATM   23  H11         0      72.606  84.366   8.535  1.00  0.00     0.218 HD
ENDBRANCH  18  22
ENDBRANCH   4  14
BRANCH   8  24
HETATM   24  O17         0      69.032  86.108  17.685  1.00  0.00    -0.359 OA
HETATM   25  H17         0      68.769  86.467  18.524  1.00  0.00     0.218 HD
ENDBRANCH   8  24
TORSDOF 5
ENDMDL
MODEL 6
REMARK VINA RESULT:       0.0      9.723     11.979
REMARK  5 active torsions:
REMARK  status: ('A' for Active; 'I' for Inactive)
REMARK    1  A    between atoms: C4_4  and  C5_5 
REMARK    2  A    between atoms: C8_8  and  O9_9 
REMARK    3  A    between atoms: C10_11  and  O11_12 
REMARK    4  A    between atoms: C16_18  and  O17_19 
REMARK    5  A    between atoms: C19_22  and  O20_23 
ROOT
HETATM    1  O1          0      73.200  92.204  11.939  1.00  0.00    -0.286 OA
HETATM    2  C2          0      73.887  91.147  11.971  1.00  0.00     0.201 C 
HETATM    3  C3          0      74.931  90.903  11.094  1.00  0.00     0.067 C 
HETATM    4  C4          0      75.605  89.688  11.083  1.00  0.00     0.103 C 
HETATM    5  O13         0      75.247  88.756  11.949  1.00  0.00    -0.307 OA
HETATM    6  C14         0      74.240  88.921  12.777  1.00  0.00     0.107 C 
HETATM    7  C15         0      73.611  87.845  13.388  1.00  0.00     0.049 C 
HETATM    8  C16         0      72.401  87.999  14.053  1.00  0.00     0.093 C 
HETATM    9  C18         0      72.148  89.282  14.522  1.00  0.00     0.048 C 
HETATM   10  C19         0      72.794  90.377  13.965  1.00  0.00     0.096 C 
HETATM   11  C21         0      73.700  90.190  12.957  1.00  0.00     0.084 C 
ENDROOT
BRANCH  10  12
HETATM   12  O20         0      72.239  91.644  14.117  1.00  0.00    -0.359 OA
HETATM   13  H20         0      72.793  92.396  13.944  1.00  0.00     0.218 HD
ENDBRANCH  10  12
BRANCH   4  14
HETATM   14  C5          0      76.227  89.278   9.823  1.00  0.00     0.025 C 
HETATM   15  C6          0      76.443  87.949   9.488  1.00  0.00     0.004 C 
HETATM   16  C7          0      76.248  87.579   8.161  1.00  0.00     0.026 C 
HETATM   17  C8          0      75.980  88.520   7.173  1.00  0.00     0.112 C 
HETATM   18  C10         0      76.405  89.808   7.469  1.00  0.00     0.112 C 
HETATM   19  C12         0      76.509  90.179   8.804  1.00  0.00     0.028 C 
BRANCH  17  20
HETATM   20  O9          0      75.168  88.206   6.098  1.00  0.00    -0.357 OA
HETATM   21  H9          0      74.426  88.734   5.825  1.00  0.00     0.218 HD
ENDBRANCH  17  20
BRANCH  18  22
HETATM   22  O11         0      76.334  90.743   6.446  1.00  0.00    -0.357 OA
HETATM   23  H11         0      75.491  90.854   6.022  1.00  0.00     0.218 HD
ENDBRANCH  18  22
ENDBRANCH   4  14
BRANCH   8  24
HETATM   24  O17         0      71.388  87.038  13.956  1.00  0.00    -0.359 OA
HETATM   25  H17         0      70.472  87.282  13.896  1.00  0.00     0.218 HD
ENDBRANCH   8  24
TORSDOF 5
ENDMDL
MODEL 7
REMARK VINA RESULT:       0.0      7.732      9.565
REMARK  5 active torsions:
REMARK  status: ('A' for Active; 'I' for Inactive)
REMARK    1  A    between atoms: C4_4  and  C5_5 
REMARK    2  A    between atoms: C8_8  and  O9_9 
REMARK    3  A    between atoms: C10_11  and  O11_12 
REMARK    4  A    between atoms: C16_18  and  O17_19 
REMARK    5  A    between atoms: C19_22  and  O20_23 
ROOT
HETATM    1  O1          0      71.289  93.469  13.414  1.00  0.00    -0.286 OA
HETATM    2  C2          0      71.726  92.288  13.328  1.00  0.00     0.201 C 
HETATM    3  C3          0      72.689  91.910  12.408  1.00  0.00     0.067 C 
HETATM    4  C4          0      73.079  90.583  12.266  1.00  0.00     0.103 C 
HETATM    5  O13         0      72.525  89.671  13.046  1.00  0.00    -0.307 OA
HETATM    6  C14         0      71.579  89.971  13.909  1.00  0.00     0.107 C 
HETATM    7  C15         0      70.730  89.005  14.428  1.00  0.00     0.049 C 
HETATM    8  C16         0      69.584  89.355  15.132  1.00  0.00     0.093 C 
HETATM    9  C18         0      69.621  90.609  15.728  1.00  0.00     0.048 C 
HETATM   10  C19         0      70.492  91.585  15.264  1.00  0.00     0.096 C 
HETATM   11  C21         0      71.334  91.304  14.222  1.00  0.00     0.084 C 
ENDROOT
BRANCH  10  12
HETATM   12  O20         0      70.231  92.922  15.549  1.00  0.00    -0.359 OA
HETATM   13  H20         0      70.937  93.547  15.436  1.00  0.00     0.218 HD
ENDBRANCH  10  12
BRANCH   4  14
HETATM   14  C5          0      73.593  90.173  10.958  1.00  0.00     0.025 C 
HETATM   15  C6          0      73.510  88.868  10.492  1.00  0.00     0.004 C 
HETATM   16  C7          0      73.237  88.683   9.141  1.00  0.00     0.026 C 
HETATM   17  C8          0      73.182  89.753   8.254  1.00  0.00     0.112 C 
HETATM   18  C10         0      73.881  90.880   8.662  1.00  0.00     0.112 C 
HETATM   19  C12         0      74.066  91.086  10.024  1.00  0.00     0.028 C 
BRANCH  17  20
HETATM   20  O9          0      72.320  89.733   7.172  1.00  0.00    -0.357 OA
HETATM   21  H9          0      72.563  90.014   6.298  1.00  0.00     0.218 HD
ENDBRANCH  17  20
BRANCH  18  22
HETATM   22  O11         0      74.018  91.905   7.736  1.00  0.00    -0.357 OA
HETATM   23  H11         0      73.219  92.239   7.344  1.00  0.00     0.218 HD
ENDBRANCH  18  22
ENDBRANCH   4  14
BRANCH   8  24
HETATM   24  O17         0      68.384  88.654  14.966  1.00  0.00    -0.359 OA
HETATM   25  H17         0      67.544  89.098  14.952  1.00  0.00     0.218 HD
ENDBRANCH   8  24
TORSDOF 5
ENDMDL
MODEL 8
REMARK VINA RESULT:       0.0      8.659      9.404
REMARK  5 active torsions:
REMARK  status: ('A' for Active; 'I' for Inactive)
REMARK    1  A    between atoms: C4_4  and  C5_5 
REMARK    2  A    between atoms: C8_8  and  O9_9 
REMARK    3  A    between atoms: C10_11  and  O11_12 
REMARK    4  A    between atoms: C16_18  and  O17_19 
REMARK    5  A    between atoms: C19_22  and  O20_23 
ROOT
HETATM    1  O1          0      69.724  92.818  14.543  1.00  0.00    -0.286 OA
HETATM    2  C2          0      70.425  93.830  14.268  1.00  0.00     0.201 C 
HETATM    3  C3          0      70.226  94.595  13.131  1.00  0.00     0.067 C 
HETATM    4  C4          0      71.077  95.643  12.801  1.00  0.00     0.103 C 
HETATM    5  O13         0      72.086  95.921  13.608  1.00  0.00    -0.307 OA
HETATM    6  C14         0      72.341  95.203  14.680  1.00  0.00     0.107 C 
HETATM    7  C15         0      73.585  95.225  15.295  1.00  0.00     0.049 C 
HETATM    8  C16         0      73.929  94.286  16.260  1.00  0.00     0.093 C 
HETATM    9  C18         0      72.855  93.714  16.931  1.00  0.00     0.048 C 
HETATM   10  C19         0      71.587  93.717  16.366  1.00  0.00     0.096 C 
HETATM   11  C21         0      71.389  94.302  15.145  1.00  0.00     0.084 C 
ENDROOT
BRANCH  10  12
HETATM   12  O20         0      70.643  92.795  16.808  1.00  0.00    -0.359 OA
HETATM   13  H20         0      70.566  92.650  17.743  1.00  0.00     0.218 HD
ENDBRANCH  10  12
BRANCH   4  14
HETATM   14  C5          0      71.194  95.989  11.383  1.00  0.00     0.025 C 
HETATM   15  C6          0      72.326  96.584  10.845  1.00  0.00     0.004 C 
HETATM   16  C7          0      72.727  96.176   9.576  1.00  0.00     0.026 C 
HETATM   17  C8          0      71.956  95.307   8.812  1.00  0.00     0.112 C 
HETATM   18  C10         0      70.608  95.283   9.144  1.00  0.00     0.112 C 
HETATM   19  C12         0      70.242  95.613  10.444  1.00  0.00     0.028 C 
BRANCH  17  20
HETATM   20  O9          0      72.550  94.404   7.949  1.00  0.00    -0.357 OA
HETATM   21  H9          0      72.067  93.869   7.330  1.00  0.00     0.218 HD
ENDBRANCH  17  20
BRANCH  18  22
HETATM   22  O11         0      69.764  94.581   8.296  1.00  0.00    -0.357 OA
HETATM   23  H11         0      69.315  95.081   7.625  1.00  0.00     0.218 HD
ENDBRANCH  18  22
ENDBRANCH   4  14
BRANCH   8  24
HETATM   24  O17         0      75.210  93.725  16.308  1.00  0.00    -0.359 OA
HETATM   25  H17         0      75.375  92.833  16.026  1.00  0.00     0.218 HD
ENDBRANCH   8  24
TORSDOF 5
ENDMDL
MODEL 9
REMARK VINA RESULT:       0.0     10.747     14.622
REMARK  5 active torsions:
REMARK  status: ('A' for Active; 'I' for Inactive)
REMARK    1  A    between atoms: C4_4  and  C5_5 
REMARK    2  A    between atoms: C8_8  and  O9_9 
REMARK    3  A    between atoms: C10_11  and  O11_12 
REMARK    4  A    between atoms: C16_18  and  O17_19 
REMARK    5  A    between atoms: C19_22  and  O20_23 
ROOT
HETATM    1  O1          0      73.960  87.325  14.225  1.00  0.00    -0.286 OA
HETATM    2  C2          0      74.100  86.197  14.772  1.00  0.00     0.201 C 
HETATM    3  C3          0      75.283  85.480  14.721  1.00  0.00     0.067 C 
HETATM    4  C4          0      75.380  84.195  15.243  1.00  0.00     0.103 C 
HETATM    5  O13         0      74.317  83.662  15.818  1.00  0.00    -0.307 OA
HETATM    6  C14         0      73.159  84.284  15.860  1.00  0.00     0.107 C 
HETATM    7  C15         0      71.971  83.604  16.087  1.00  0.00     0.049 C 
HETATM    8  C16         0      70.740  84.213  15.879  1.00  0.00     0.093 C 
HETATM    9  C18         0      70.749  85.600  15.966  1.00  0.00     0.048 C 
HETATM   10  C19         0      71.929  86.310  15.791  1.00  0.00     0.096 C 
HETATM   11  C21         0      73.096  85.638  15.548  1.00  0.00     0.084 C 
ENDROOT
BRANCH  10  12
HETATM   12  O20         0      71.868  87.657  15.447  1.00  0.00    -0.359 OA
HETATM   13  H20         0      71.969  87.888  14.531  1.00  0.00     0.218 HD
ENDBRANCH  10  12
BRANCH   4  14
HETATM   14  C5          0      76.382  83.306  14.652  1.00  0.00     0.025 C 
HETATM   15  C6          0      76.257  81.925  14.655  1.00  0.00     0.004 C 
HETATM   16  C7          0      76.679  81.237  13.522  1.00  0.00     0.026 C 
HETATM   17  C8          0      77.328  81.883  12.476  1.00  0.00     0.112 C 
HETATM   18  C10         0      77.954  83.072  12.828  1.00  0.00     0.112 C 
HETATM   19  C12         0      77.458  83.783  13.914  1.00  0.00     0.028 C 
BRANCH  17  20
HETATM   20  O9          0      77.161  81.461  11.169  1.00  0.00    -0.357 OA
HETATM   21  H9          0      77.870  81.142  10.622  1.00  0.00     0.218 HD
ENDBRANCH  17  20
BRANCH  18  22
HETATM   22  O11         0      78.771  83.659  11.872  1.00  0.00    -0.357 OA
HETATM   23  H11         0      78.505  83.568  10.964  1.00  0.00     0.218 HD
ENDBRANCH  18  22
ENDBRANCH   4  14
BRANCH   8  24
HETATM   24  O17         0      69.671  83.519  15.301  1.00  0.00    -0.359 OA
HETATM   25  H17         0      69.522  82.597  15.475  1.00  0.00     0.218 HD
ENDBRANCH   8  24
TORSDOF 5
ENDMDL
