MODEL 1
REMARK VINA RESULT:      -7.0      0.000      0.000
REMARK  5 active torsions:
REMARK  status: ('A' for Active; 'I' for Inactive)
REMARK    1  A    between atoms: C4_4  and  C5_5 
REMARK    2  A    between atoms: C8_8  and  O9_9 
REMARK    3  A    between atoms: C10_11  and  O11_12 
REMARK    4  A    between atoms: C16_18  and  O17_19 
REMARK    5  A    between atoms: C19_22  and  O20_23 
ROOT
HETATM    1  O1          0      61.625  54.894  19.865  1.00  0.00    -0.286 OA
HETATM    2  C2          0      62.511  55.513  19.214  1.00  0.00     0.201 C 
HETATM    3  C3          0      63.681  54.914  18.782  1.00  0.00     0.067 C 
HETATM    4  C4          0      64.686  55.644  18.157  1.00  0.00     0.103 C 
HETATM    5  O13         0      64.501  56.937  17.957  1.00  0.00    -0.307 OA
HETATM    6  C14         0      63.424  57.562  18.381  1.00  0.00     0.107 C 
HETATM    7  C15         0      63.394  58.940  18.538  1.00  0.00     0.049 C 
HETATM    8  C16         0      62.358  59.567  19.220  1.00  0.00     0.093 C 
HETATM    9  C18         0      61.162  58.859  19.249  1.00  0.00     0.048 C 
HETATM   10  C19         0      61.151  57.485  19.049  1.00  0.00     0.096 C 
HETATM   11  C21         0      62.324  56.825  18.805  1.00  0.00     0.084 C 
ENDROOT
BRANCH  10  12
HETATM   12  O20         0      60.065  56.741  19.501  1.00  0.00    -0.359 OA
HETATM   13  H20         0      59.741  56.044  18.944  1.00  0.00     0.218 HD
ENDBRANCH  10  12
BRANCH   4  14
HETATM   14  C5          0      66.055  55.138  18.277  1.00  0.00     0.025 C 
HETATM   15  C6          0      66.535  54.535  19.430  1.00  0.00     0.004 C 
HETATM   16  C7          0      67.392  53.449  19.281  1.00  0.00     0.026 C 
HETATM   17  C8          0      67.863  53.058  18.033  1.00  0.00     0.112 C 
HETATM   18  C10         0      67.851  54.057  17.069  1.00  0.00     0.112 C 
HETATM   19  C12         0      66.927  55.087  17.197  1.00  0.00     0.028 C 
BRANCH  17  20
HETATM   20  O9          0      68.110  51.725  17.754  1.00  0.00    -0.357 OA
HETATM   21  H9          0      68.872  51.419  17.275  1.00  0.00     0.218 HD
ENDBRANCH  17  20
BRANCH  18  22
HETATM   22  O11         0      68.482  53.777  15.866  1.00  0.00    -0.357 OA
HETATM   23  H11         0      67.954  53.375  15.186  1.00  0.00     0.218 HD
ENDBRANCH  18  22
ENDBRANCH   4  14
BRANCH   8  24
HETATM   24  O17         0      62.597  60.642  20.082  1.00  0.00    -0.359 OA
HETATM   25  H17         0      62.232  60.670  20.958  1.00  0.00     0.218 HD
ENDBRANCH   8  24
TORSDOF 5
ENDMDL
MODEL 2
REMARK VINA RESULT:      -6.8      1.663      2.876
REMARK  5 active torsions:
REMARK  status: ('A' for Active; 'I' for Inactive)
REMARK    1  A    between atoms: C4_4  and  C5_5 
REMARK    2  A    between atoms: C8_8  and  O9_9 
REMARK    3  A    between atoms: C10_11  and  O11_12 
REMARK    4  A    between atoms: C16_18  and  O17_19 
REMARK    5  A    between atoms: C19_22  and  O20_23 
ROOT
HETATM    1  O1          0      65.007  59.428  17.947  1.00  0.00    -0.286 OA
HETATM    2  C2          0      64.728  58.209  18.113  1.00  0.00     0.201 C 
HETATM    3  C3          0      65.696  57.222  18.197  1.00  0.00     0.067 C 
HETATM    4  C4          0      65.359  55.876  18.277  1.00  0.00     0.103 C 
HETATM    5  O13         0      64.080  55.541  18.294  1.00  0.00    -0.307 OA
HETATM    6  C14         0      63.123  56.435  18.180  1.00  0.00     0.107 C 
HETATM    7  C15         0      61.836  56.083  17.799  1.00  0.00     0.049 C 
HETATM    8  C16         0      60.902  57.045  17.434  1.00  0.00     0.093 C 
HETATM    9  C18         0      61.126  58.310  17.964  1.00  0.00     0.048 C 
HETATM   10  C19         0      62.392  58.680  18.398  1.00  0.00     0.096 C 
HETATM   11  C21         0      63.424  57.786  18.319  1.00  0.00     0.084 C 
ENDROOT
BRANCH  10  12
HETATM   12  O20         0      62.706  60.031  18.508  1.00  0.00    -0.359 OA
HETATM   13  H20         0      62.776  60.402  19.379  1.00  0.00     0.218 HD
ENDBRANCH  10  12
BRANCH   4  14
HETATM   14  C5          0      66.333  54.909  17.767  1.00  0.00     0.025 C 
HETATM   15  C6          0      66.467  53.630  18.287  1.00  0.00     0.004 C 
HETATM   16  C7          0      66.720  52.594  17.394  1.00  0.00     0.026 C 
HETATM   17  C8          0      66.967  52.837  16.047  1.00  0.00     0.112 C 
HETATM   18  C10         0      67.431  54.114  15.763  1.00  0.00     0.112 C 
HETATM   19  C12         0      67.092  55.148  16.628  1.00  0.00     0.028 C 
BRANCH  17  20
HETATM   20  O9          0      66.568  51.932  15.079  1.00  0.00    -0.357 OA
HETATM   21  H9          0      65.849  51.321  15.192  1.00  0.00     0.218 HD
ENDBRANCH  17  20
BRANCH  18  22
HETATM   22  O11         0      67.871  54.350  14.468  1.00  0.00    -0.357 OA
HETATM   23  H11         0      67.613  55.173  14.070  1.00  0.00     0.218 HD
ENDBRANCH  18  22
ENDBRANCH   4  14
BRANCH   8  24
HETATM   24  O17         0      60.023  56.840  16.365  1.00  0.00    -0.359 OA
HETATM   25  H17         0      59.399  57.504  16.097  1.00  0.00     0.218 HD
ENDBRANCH   8  24
TORSDOF 5
ENDMDL
MODEL 3
REMARK VINA RESULT:      -6.8      4.137      7.571
REMARK  5 active torsions:
REMARK  status: ('A' for Active; 'I' for Inactive)
REMARK    1  A    between atoms: C4_4  and  C5_5 
REMARK    2  A    between atoms: C8_8  and  O9_9 
REMARK    3  A    between atoms: C10_11  and  O11_12 
REMARK    4  A    between atoms: C16_18  and  O17_19 
REMARK    5  A    between atoms: C19_22  and  O20_23 
ROOT
HETATM    1  O1          0      65.997  51.398  13.518  1.00  0.00    -0.286 OA
HETATM    2  C2          0      66.822  52.207  14.025  1.00  0.00     0.201 C 
HETATM    3  C3          0      66.794  52.567  15.362  1.00  0.00     0.067 C 
HETATM    4  C4          0      67.649  53.537  15.872  1.00  0.00     0.103 C 
HETATM    5  O13         0      68.519  54.109  15.058  1.00  0.00    -0.307 OA
HETATM    6  C14         0      68.561  53.831  13.774  1.00  0.00     0.107 C 
HETATM    7  C15         0      69.166  54.683  12.861  1.00  0.00     0.049 C 
HETATM    8  C16         0      68.989  54.518  11.493  1.00  0.00     0.093 C 
HETATM    9  C18         0      68.660  53.228  11.095  1.00  0.00     0.048 C 
HETATM   10  C19         0      68.097  52.334  11.995  1.00  0.00     0.096 C 
HETATM   11  C21         0      67.878  52.721  13.289  1.00  0.00     0.084 C 
ENDROOT
BRANCH  10  12
HETATM   12  O20         0      67.386  51.240  11.512  1.00  0.00    -0.359 OA
HETATM   13  H20         0      66.438  51.294  11.501  1.00  0.00     0.218 HD
ENDBRANCH  10  12
BRANCH   4  14
HETATM   14  C5          0      67.194  54.277  17.050  1.00  0.00     0.025 C 
HETATM   15  C6          0      65.853  54.420  17.378  1.00  0.00     0.004 C 
HETATM   16  C7          0      65.509  54.366  18.724  1.00  0.00     0.026 C 
HETATM   17  C8          0      66.476  54.308  19.723  1.00  0.00     0.112 C 
HETATM   18  C10         0      67.720  54.801  19.353  1.00  0.00     0.112 C 
HETATM   19  C12         0      68.073  54.764  18.009  1.00  0.00     0.028 C 
BRANCH  17  20
HETATM   20  O9          0      66.241  53.617  20.898  1.00  0.00    -0.357 OA
HETATM   21  H9          0      66.534  52.727  21.054  1.00  0.00     0.218 HD
ENDBRANCH  17  20
BRANCH  18  22
HETATM   22  O11         0      68.664  54.942  20.360  1.00  0.00    -0.357 OA
HETATM   23  H11         0      68.420  55.476  21.107  1.00  0.00     0.218 HD
ENDBRANCH  18  22
ENDBRANCH   4  14
BRANCH   8  24
HETATM   24  O17         0      68.820  55.616  10.642  1.00  0.00    -0.359 OA
HETATM   25  H17         0      68.922  56.508  10.952  1.00  0.00     0.218 HD
ENDBRANCH   8  24
TORSDOF 5
ENDMDL
MODEL 4
REMARK VINA RESULT:      -6.5      1.884      7.406
REMARK  5 active torsions:
REMARK  status: ('A' for Active; 'I' for Inactive)
REMARK    1  A    between atoms: C4_4  and  C5_5 
REMARK    2  A    between atoms: C8_8  and  O9_9 
REMARK    3  A    between atoms: C10_11  and  O11_12 
REMARK    4  A    between atoms: C16_18  and  O17_19 
REMARK    5  A    between atoms: C19_22  and  O20_23 
ROOT
HETATM    1  O1          0      68.876  55.925  15.841  1.00  0.00    -0.286 OA
HETATM    2  C2          0      68.058  55.235  16.509  1.00  0.00     0.201 C 
HETATM    3  C3          0      66.771  55.660  16.791  1.00  0.00     0.067 C 
HETATM    4  C4          0      65.925  54.927  17.615  1.00  0.00     0.103 C 
HETATM    5  O13         0      66.362  53.787  18.121  1.00  0.00    -0.307 OA
HETATM    6  C14         0      67.587  53.356  17.915  1.00  0.00     0.107 C 
HETATM    7  C15         0      68.175  52.406  18.738  1.00  0.00     0.049 C 
HETATM    8  C16         0      69.538  52.142  18.677  1.00  0.00     0.093 C 
HETATM    9  C18         0      70.141  52.449  17.463  1.00  0.00     0.048 C 
HETATM   10  C19         0      69.557  53.361  16.595  1.00  0.00     0.096 C 
HETATM   11  C21         0      68.368  53.950  16.930  1.00  0.00     0.084 C 
ENDROOT
BRANCH  10  12
HETATM   12  O20         0      70.343  53.981  15.629  1.00  0.00    -0.359 OA
HETATM   13  H20         0      70.299  54.927  15.559  1.00  0.00     0.218 HD
ENDBRANCH  10  12
BRANCH   4  14
HETATM   14  C5          0      64.886  55.666  18.336  1.00  0.00     0.025 C 
HETATM   15  C6          0      64.665  57.023  18.154  1.00  0.00     0.004 C 
HETATM   16  C7          0      63.348  57.469  18.163  1.00  0.00     0.026 C 
HETATM   17  C8          0      62.292  56.618  18.476  1.00  0.00     0.112 C 
HETATM   18  C10         0      62.645  55.511  19.235  1.00  0.00     0.112 C 
HETATM   19  C12         0      63.948  55.035  19.142  1.00  0.00     0.028 C 
BRANCH  17  20
HETATM   20  O9          0      61.052  56.780  17.883  1.00  0.00    -0.357 OA
HETATM   21  H9          0      60.849  57.472  17.264  1.00  0.00     0.218 HD
ENDBRANCH  17  20
BRANCH  18  22
HETATM   22  O11         0      61.609  54.734  19.733  1.00  0.00    -0.357 OA
HETATM   23  H11         0      61.068  54.281  19.097  1.00  0.00     0.218 HD
ENDBRANCH  18  22
ENDBRANCH   4  14
BRANCH   8  24
HETATM   24  O17         0      70.289  51.914  19.835  1.00  0.00    -0.359 OA
HETATM   25  H17         0      70.050  51.240  20.460  1.00  0.00     0.218 HD
ENDBRANCH   8  24
TORSDOF 5
ENDMDL
MODEL 5
REMARK VINA RESULT:      -6.2      2.185      6.892
REMARK  5 active torsions:
REMARK  status: ('A' for Active; 'I' for Inactive)
REMARK    1  A    between atoms: C4_4  and  C5_5 
REMARK    2  A    between atoms: C8_8  and  O9_9 
REMARK    3  A    between atoms: C10_11  and  O11_12 
REMARK    4  A    between atoms: C16_18  and  O17_19 
REMARK    5  A    between atoms: C19_22  and  O20_23 
ROOT
HETATM    1  O1          0      67.902  58.382  19.378  1.00  0.00    -0.286 OA
HETATM    2  C2          0      67.102  57.586  18.813  1.00  0.00     0.201 C 
HETATM    3  C3          0      65.787  57.915  18.535  1.00  0.00     0.067 C 
HETATM    4  C4          0      64.899  56.985  18.005  1.00  0.00     0.103 C 
HETATM    5  O13         0      65.337  55.766  17.746  1.00  0.00    -0.307 OA
HETATM    6  C14         0      66.566  55.390  18.026  1.00  0.00     0.107 C 
HETATM    7  C15         0      66.914  54.052  18.136  1.00  0.00     0.049 C 
HETATM    8  C16         0      68.135  53.666  18.676  1.00  0.00     0.093 C 
HETATM    9  C18         0      69.142  54.619  18.592  1.00  0.00     0.048 C 
HETATM   10  C19         0      68.830  55.963  18.434  1.00  0.00     0.096 C 
HETATM   11  C21         0      67.521  56.350  18.345  1.00  0.00     0.084 C 
ENDROOT
BRANCH  10  12
HETATM   12  O20         0      69.773  56.926  18.782  1.00  0.00    -0.359 OA
HETATM   13  H20         0      69.458  57.747  19.140  1.00  0.00     0.218 HD
ENDBRANCH  10  12
BRANCH   4  14
HETATM   14  C5          0      63.477  57.176  18.295  1.00  0.00     0.025 C 
HETATM   15  C6          0      62.928  58.418  18.583  1.00  0.00     0.004 C 
HETATM   16  C7          0      61.664  58.697  18.073  1.00  0.00     0.026 C 
HETATM   17  C8          0      60.913  57.730  17.414  1.00  0.00     0.112 C 
HETATM   18  C10         0      61.249  56.420  17.730  1.00  0.00     0.112 C 
HETATM   19  C12         0      62.545  56.156  18.156  1.00  0.00     0.028 C 
BRANCH  17  20
HETATM   20  O9          0      60.060  58.077  16.381  1.00  0.00    -0.357 OA
HETATM   21  H9          0      60.334  58.154  15.474  1.00  0.00     0.218 HD
ENDBRANCH  17  20
BRANCH  18  22
HETATM   22  O11         0      60.412  55.423  17.250  1.00  0.00    -0.357 OA
HETATM   23  H11         0      59.495  55.477  17.495  1.00  0.00     0.218 HD
ENDBRANCH  18  22
ENDBRANCH   4  14
BRANCH   8  24
HETATM   24  O17         0      68.239  52.560  19.527  1.00  0.00    -0.359 OA
HETATM   25  H17         0      68.750  52.591  20.327  1.00  0.00     0.218 HD
ENDBRANCH   8  24
TORSDOF 5
ENDMDL
MODEL 6
REMARK VINA RESULT:      -6.1      1.867      7.026
REMARK  5 active torsions:
REMARK  status: ('A' for Active; 'I' for Inactive)
REMARK    1  A    between atoms: C4_4  and  C5_5 
REMARK    2  A    between atoms: C8_8  and  O9_9 
REMARK    3  A    between atoms: C10_11  and  O11_12 
REMARK    4  A    between atoms: C16_18  and  O17_19 
REMARK    5  A    between atoms: C19_22  and  O20_23 
ROOT
HETATM    1  O1          0      67.872  52.728  19.571  1.00  0.00    -0.286 OA
HETATM    2  C2          0      67.424  53.589  18.765  1.00  0.00     0.201 C 
HETATM    3  C3          0      66.592  54.624  19.159  1.00  0.00     0.067 C 
HETATM    4  C4          0      66.031  55.498  18.236  1.00  0.00     0.103 C 
HETATM    5  O13         0      66.320  55.342  16.956  1.00  0.00    -0.307 OA
HETATM    6  C14         0      67.074  54.355  16.525  1.00  0.00     0.107 C 
HETATM    7  C15         0      67.058  53.948  15.199  1.00  0.00     0.049 C 
HETATM    8  C16         0      67.653  52.756  14.802  1.00  0.00     0.093 C 
HETATM    9  C18         0      68.669  52.303  15.634  1.00  0.00     0.048 C 
HETATM   10  C19         0      68.743  52.726  16.954  1.00  0.00     0.096 C 
HETATM   11  C21         0      67.817  53.611  17.436  1.00  0.00     0.084 C 
ENDROOT
BRANCH  10  12
HETATM   12  O20         0      69.459  51.966  17.874  1.00  0.00    -0.359 OA
HETATM   13  H20         0      69.724  52.383  18.685  1.00  0.00     0.218 HD
ENDBRANCH  10  12
BRANCH   4  14
HETATM   14  C5          0      64.762  56.131  18.599  1.00  0.00     0.025 C 
HETATM   15  C6          0      64.416  57.412  18.193  1.00  0.00     0.004 C 
HETATM   16  C7          0      63.089  57.642  17.845  1.00  0.00     0.026 C 
HETATM   17  C8          0      62.110  56.671  18.023  1.00  0.00     0.112 C 
HETATM   18  C10         0      62.409  55.714  18.983  1.00  0.00     0.112 C 
HETATM   19  C12         0      63.746  55.443  19.250  1.00  0.00     0.028 C 
BRANCH  17  20
HETATM   20  O9          0      61.040  56.575  17.150  1.00  0.00    -0.357 OA
HETATM   21  H9          0      60.183  56.948  17.322  1.00  0.00     0.218 HD
ENDBRANCH  17  20
BRANCH  18  22
HETATM   22  O11         0      61.393  54.837  19.334  1.00  0.00    -0.357 OA
HETATM   23  H11         0      61.272  54.075  18.779  1.00  0.00     0.218 HD
ENDBRANCH  18  22
ENDBRANCH   4  14
BRANCH   8  24
HETATM   24  O17         0      67.054  51.923  13.851  1.00  0.00    -0.359 OA
HETATM   25  H17         0      66.221  52.142  13.450  1.00  0.00     0.218 HD
ENDBRANCH   8  24
TORSDOF 5
ENDMDL
MODEL 7
REMARK VINA RESULT:      -5.9      3.898      6.721
REMARK  5 active torsions:
REMARK  status: ('A' for Active; 'I' for Inactive)
REMARK    1  A    between atoms: C4_4  and  C5_5 
REMARK    2  A    between atoms: C8_8  and  O9_9 
REMARK    3  A    between atoms: C10_11  and  O11_12 
REMARK    4  A    between atoms: C16_18  and  O17_19 
REMARK    5  A    between atoms: C19_22  and  O20_23 
ROOT
HETATM    1  O1          0      70.282  55.471  18.043  1.00  0.00    -0.286 OA
HETATM    2  C2          0      69.573  54.617  17.444  1.00  0.00     0.201 C 
HETATM    3  C3          0      69.867  54.156  16.172  1.00  0.00     0.067 C 
HETATM    4  C4          0      69.013  53.293  15.494  1.00  0.00     0.103 C 
HETATM    5  O13         0      67.907  52.892  16.096  1.00  0.00    -0.307 OA
HETATM    6  C14         0      67.562  53.328  17.288  1.00  0.00     0.107 C 
HETATM    7  C15         0      66.256  53.242  17.748  1.00  0.00     0.049 C 
HETATM    8  C16         0      65.846  53.924  18.887  1.00  0.00     0.093 C 
HETATM    9  C18         0      66.859  54.225  19.788  1.00  0.00     0.048 C 
HETATM   10  C19         0      68.183  54.274  19.371  1.00  0.00     0.096 C 
HETATM   11  C21         0      68.493  54.008  18.066  1.00  0.00     0.084 C 
ENDROOT
BRANCH  10  12
HETATM   12  O20         0      69.110  54.980  20.131  1.00  0.00    -0.359 OA
HETATM   13  H20         0      69.452  55.792  19.776  1.00  0.00     0.218 HD
ENDBRANCH  10  12
BRANCH   4  14
HETATM   14  C5          0      69.046  53.331  14.031  1.00  0.00     0.025 C 
HETATM   15  C6          0      69.901  52.540  13.277  1.00  0.00     0.004 C 
HETATM   16  C7          0      69.409  52.011  12.088  1.00  0.00     0.026 C 
HETATM   17  C8          0      68.157  52.363  11.596  1.00  0.00     0.112 C 
HETATM   18  C10         0      67.677  53.583  12.052  1.00  0.00     0.112 C 
HETATM   19  C12         0      68.120  54.048  13.284  1.00  0.00     0.028 C 
BRANCH  17  20
HETATM   20  O9          0      67.393  51.453  10.886  1.00  0.00    -0.357 OA
HETATM   21  H9          0      66.549  51.130  11.180  1.00  0.00     0.218 HD
ENDBRANCH  17  20
BRANCH  18  22
HETATM   22  O11         0      66.525  54.069  11.451  1.00  0.00    -0.357 OA
HETATM   23  H11         0      66.198  53.591  10.697  1.00  0.00     0.218 HD
ENDBRANCH  18  22
ENDBRANCH   4  14
BRANCH   8  24
HETATM   24  O17         0      64.594  54.547  18.952  1.00  0.00    -0.359 OA
HETATM   25  H17         0      64.508  55.477  19.127  1.00  0.00     0.218 HD
ENDBRANCH   8  24
TORSDOF 5
ENDMDL
MODEL 8
REMARK VINA RESULT:      -5.9      5.879      8.192
REMARK  5 active torsions:
REMARK  status: ('A' for Active; 'I' for Inactive)
REMARK    1  A    between atoms: C4_4  and  C5_5 
REMARK    2  A    between atoms: C8_8  and  O9_9 
REMARK    3  A    between atoms: C10_11  and  O11_12 
REMARK    4  A    between atoms: C16_18  and  O17_19 
REMARK    5  A    between atoms: C19_22  and  O20_23 
ROOT
HETATM    1  O1          0      68.555  54.672  20.042  1.00  0.00    -0.286 OA
HETATM    2  C2          0      69.247  54.220  19.089  1.00  0.00     0.201 C 
HETATM    3  C3          0      68.753  54.078  17.804  1.00  0.00     0.067 C 
HETATM    4  C4          0      69.503  53.482  16.796  1.00  0.00     0.103 C 
HETATM    5  O13         0      70.724  53.062  17.077  1.00  0.00    -0.307 OA
HETATM    6  C14         0      71.227  53.138  18.290  1.00  0.00     0.107 C 
HETATM    7  C15         0      72.308  52.362  18.683  1.00  0.00     0.049 C 
HETATM    8  C16         0      72.673  52.256  20.020  1.00  0.00     0.093 C 
HETATM    9  C18         0      72.282  53.322  20.821  1.00  0.00     0.048 C 
HETATM   10  C19         0      71.234  54.147  20.435  1.00  0.00     0.096 C 
HETATM   11  C21         0      70.592  53.920  19.249  1.00  0.00     0.084 C 
ENDROOT
BRANCH  10  12
HETATM   12  O20         0      70.576  54.906  21.398  1.00  0.00    -0.359 OA
HETATM   13  H20         0      70.843  55.810  21.512  1.00  0.00     0.218 HD
ENDBRANCH  10  12
BRANCH   4  14
HETATM   14  C5          0      68.768  52.834  15.708  1.00  0.00     0.025 C 
HETATM   15  C6          0      67.400  52.609  15.754  1.00  0.00     0.004 C 
HETATM   16  C7          0      66.679  52.775  14.576  1.00  0.00     0.026 C 
HETATM   17  C8          0      67.312  53.026  13.363  1.00  0.00     0.112 C 
HETATM   18  C10         0      68.635  52.610  13.303  1.00  0.00     0.112 C 
HETATM   19  C12         0      69.358  52.534  14.487  1.00  0.00     0.028 C 
BRANCH  17  20
HETATM   20  O9          0      66.710  53.815  12.400  1.00  0.00    -0.357 OA
HETATM   21  H9          0      65.999  53.519  11.843  1.00  0.00     0.218 HD
ENDBRANCH  17  20
BRANCH  18  22
HETATM   22  O11         0      69.254  52.662  12.062  1.00  0.00    -0.357 OA
HETATM   23  H11         0      69.205  53.487  11.591  1.00  0.00     0.218 HD
ENDBRANCH  18  22
ENDBRANCH   4  14
BRANCH   8  24
HETATM   24  O17         0      73.089  51.038  20.568  1.00  0.00    -0.359 OA
HETATM   25  H17         0      72.486  50.466  21.029  1.00  0.00     0.218 HD
ENDBRANCH   8  24
TORSDOF 5
ENDMDL
MODEL 9
REMARK VINA RESULT:      -5.8      2.133      7.004
REMARK  5 active torsions:
REMARK  status: ('A' for Active; 'I' for Inactive)
REMARK    1  A    between atoms: C4_4  and  C5_5 
REMARK    2  A    between atoms: C8_8  and  O9_9 
REMARK    3  A    between atoms: C10_11  and  O11_12 
REMARK    4  A    between atoms: C16_18  and  O17_19 
REMARK    5  A    between atoms: C19_22  and  O20_23 
ROOT
HETATM    1  O1          0      67.397  52.552  16.378  1.00  0.00    -0.286 OA
HETATM    2  C2          0      67.193  53.183  17.451  1.00  0.00     0.201 C 
HETATM    3  C3          0      65.945  53.655  17.819  1.00  0.00     0.067 C 
HETATM    4  C4          0      65.767  54.437  18.955  1.00  0.00     0.103 C 
HETATM    5  O13         0      66.819  54.713  19.707  1.00  0.00    -0.307 OA
HETATM    6  C14         0      68.032  54.321  19.383  1.00  0.00     0.107 C 
HETATM    7  C15         0      69.161  54.922  19.918  1.00  0.00     0.049 C 
HETATM    8  C16         0      70.425  54.685  19.390  1.00  0.00     0.093 C 
HETATM    9  C18         0      70.560  53.479  18.712  1.00  0.00     0.048 C 
HETATM   10  C19         0      69.445  52.826  18.204  1.00  0.00     0.096 C 
HETATM   11  C21         0      68.201  53.366  18.386  1.00  0.00     0.084 C 
ENDROOT
BRANCH  10  12
HETATM   12  O20         0      69.609  51.894  17.185  1.00  0.00    -0.359 OA
HETATM   13  H20         0      69.158  52.048  16.363  1.00  0.00     0.218 HD
ENDBRANCH  10  12
BRANCH   4  14
HETATM   14  C5          0      64.635  55.364  18.960  1.00  0.00     0.025 C 
HETATM   15  C6          0      64.649  56.572  18.277  1.00  0.00     0.004 C 
HETATM   16  C7          0      63.472  56.974  17.654  1.00  0.00     0.026 C 
HETATM   17  C8          0      62.284  56.270  17.816  1.00  0.00     0.112 C 
HETATM   18  C10         0      62.219  55.498  18.969  1.00  0.00     0.112 C 
HETATM   19  C12         0      63.407  55.038  19.523  1.00  0.00     0.028 C 
BRANCH  17  20
HETATM   20  O9          0      61.357  56.199  16.791  1.00  0.00    -0.357 OA
HETATM   21  H9          0      60.586  55.643  16.814  1.00  0.00     0.218 HD
ENDBRANCH  17  20
BRANCH  18  22
HETATM   22  O11         0      60.992  54.927  19.274  1.00  0.00    -0.357 OA
HETATM   23  H11         0      60.982  53.991  19.438  1.00  0.00     0.218 HD
ENDBRANCH  18  22
ENDBRANCH   4  14
BRANCH   8  24
HETATM   24  O17         0      71.365  55.712  19.258  1.00  0.00    -0.359 OA
HETATM   25  H17         0      71.106  56.602  19.050  1.00  0.00     0.218 HD
ENDBRANCH   8  24
TORSDOF 5
ENDMDL
