MODEL 1
REMARK VINA RESULT:      -0.0      0.000      0.000
REMARK  5 active torsions:
REMARK  status: ('A' for Active; 'I' for Inactive)
REMARK    1  A    between atoms: C4_4  and  C5_5 
REMARK    2  A    between atoms: C8_8  and  O9_9 
REMARK    3  A    between atoms: C10_11  and  O11_12 
REMARK    4  A    between atoms: C16_18  and  O17_19 
REMARK    5  A    between atoms: C19_22  and  O20_23 
ROOT
HETATM    1  O1          0      74.119 105.950  -8.810  1.00  0.00    -0.286 OA
HETATM    2  C2          0      74.488 107.156  -8.794  1.00  0.00     0.201 C 
HETATM    3  C3          0      73.670 108.196  -9.204  1.00  0.00     0.067 C 
HETATM    4  C4          0      74.135 109.504  -9.273  1.00  0.00     0.103 C 
HETATM    5  O13         0      75.383 109.754  -8.917  1.00  0.00    -0.307 OA
HETATM    6  C14         0      76.212 108.799  -8.556  1.00  0.00     0.107 C 
HETATM    7  C15         0      77.587 108.981  -8.571  1.00  0.00     0.049 C 
HETATM    8  C16         0      78.458 107.906  -8.437  1.00  0.00     0.093 C 
HETATM    9  C18         0      77.931 106.801  -7.779  1.00  0.00     0.048 C 
HETATM   10  C19         0      76.557 106.614  -7.705  1.00  0.00     0.096 C 
HETATM   11  C21         0      75.715 107.532  -8.270  1.00  0.00     0.084 C 
ENDROOT
BRANCH  10  12
HETATM   12  O20         0      76.058 105.340  -7.450  1.00  0.00    -0.359 OA
HETATM   13  H20         0      75.470 105.232  -6.712  1.00  0.00     0.218 HD
ENDBRANCH  10  12
BRANCH   4  14
HETATM   14  C5          0      73.485 110.396 -10.235  1.00  0.00     0.025 C 
HETATM   15  C6          0      74.127 111.487 -10.803  1.00  0.00     0.004 C 
HETATM   16  C7          0      73.865 111.763 -12.141  1.00  0.00     0.026 C 
HETATM   17  C8          0      72.898 111.065 -12.855  1.00  0.00     0.112 C 
HETATM   18  C10         0      71.913 110.476 -12.073  1.00  0.00     0.112 C 
HETATM   19  C12         0      72.228 110.131 -10.764  1.00  0.00     0.028 C 
BRANCH  17  20
HETATM   20  O9          0      73.054 110.819 -14.208  1.00  0.00    -0.357 OA
HETATM   21  H9          0      72.337 110.823 -14.831  1.00  0.00     0.218 HD
ENDBRANCH  17  20
BRANCH  18  22
HETATM   22  O11         0      70.825 109.930 -12.739  1.00  0.00    -0.357 OA
HETATM   23  H11         0      70.531 110.378 -13.523  1.00  0.00     0.218 HD
ENDBRANCH  18  22
ENDBRANCH   4  14
BRANCH   8  24
HETATM   24  O17         0      79.632 107.820  -9.194  1.00  0.00    -0.359 OA
HETATM   25  H17         0      80.171 108.583  -9.366  1.00  0.00     0.218 HD
ENDBRANCH   8  24
TORSDOF 5
ENDMDL
MODEL 2
REMARK VINA RESULT:      -0.0     12.101     14.631
REMARK  5 active torsions:
REMARK  status: ('A' for Active; 'I' for Inactive)
REMARK    1  A    between atoms: C4_4  and  C5_5 
REMARK    2  A    between atoms: C8_8  and  O9_9 
REMARK    3  A    between atoms: C10_11  and  O11_12 
REMARK    4  A    between atoms: C16_18  and  O17_19 
REMARK    5  A    between atoms: C19_22  and  O20_23 
ROOT
HETATM    1  O1          0      62.551 113.464  -6.367  1.00  0.00    -0.286 OA
HETATM    2  C2          0      62.820 114.486  -5.678  1.00  0.00     0.201 C 
HETATM    3  C3          0      63.824 115.377  -6.018  1.00  0.00     0.067 C 
HETATM    4  C4          0      64.169 116.438  -5.189  1.00  0.00     0.103 C 
HETATM    5  O13         0      63.502 116.604  -4.061  1.00  0.00    -0.307 OA
HETATM    6  C14         0      62.565 115.767  -3.673  1.00  0.00     0.107 C 
HETATM    7  C15         0      62.151 115.695  -2.350  1.00  0.00     0.049 C 
HETATM    8  C16         0      61.356 114.648  -1.899  1.00  0.00     0.093 C 
HETATM    9  C18         0      60.592 114.026  -2.879  1.00  0.00     0.048 C 
HETATM   10  C19         0      60.951 114.117  -4.217  1.00  0.00     0.096 C 
HETATM   11  C21         0      62.057 114.839  -4.575  1.00  0.00     0.084 C 
ENDROOT
BRANCH  10  12
HETATM   12  O20         0      60.470 113.171  -5.116  1.00  0.00    -0.359 OA
HETATM   13  H20         0      60.749 113.235  -6.022  1.00  0.00     0.218 HD
ENDBRANCH  10  12
BRANCH   4  14
HETATM   14  C5          0      65.542 116.938  -5.276  1.00  0.00     0.025 C 
HETATM   15  C6          0      66.182 117.565  -4.217  1.00  0.00     0.004 C 
HETATM   16  C7          0      67.534 117.294  -4.028  1.00  0.00     0.026 C 
HETATM   17  C8          0      68.258 116.530  -4.937  1.00  0.00     0.112 C 
HETATM   18  C10         0      67.726 116.496  -6.219  1.00  0.00     0.112 C 
HETATM   19  C12         0      66.358 116.687  -6.372  1.00  0.00     0.028 C 
BRANCH  17  20
HETATM   20  O9          0      69.294 115.717  -4.514  1.00  0.00    -0.357 OA
HETATM   21  H9          0      69.434 115.470  -3.607  1.00  0.00     0.218 HD
ENDBRANCH  17  20
BRANCH  18  22
HETATM   22  O11         0      68.504 115.909  -7.207  1.00  0.00    -0.357 OA
HETATM   23  H11         0      69.437 116.089  -7.183  1.00  0.00     0.218 HD
ENDBRANCH  18  22
ENDBRANCH   4  14
BRANCH   8  24
HETATM   24  O17         0      61.567 114.060  -0.647  1.00  0.00    -0.359 OA
HETATM   25  H17         0      61.659 113.120  -0.546  1.00  0.00     0.218 HD
ENDBRANCH   8  24
TORSDOF 5
ENDMDL
MODEL 3
REMARK VINA RESULT:      -0.0      6.562      8.535
REMARK  5 active torsions:
REMARK  status: ('A' for Active; 'I' for Inactive)
REMARK    1  A    between atoms: C4_4  and  C5_5 
REMARK    2  A    between atoms: C8_8  and  O9_9 
REMARK    3  A    between atoms: C10_11  and  O11_12 
REMARK    4  A    between atoms: C16_18  and  O17_19 
REMARK    5  A    between atoms: C19_22  and  O20_23 
ROOT
HETATM    1  O1          0      68.992 110.426  -8.576  1.00  0.00    -0.286 OA
HETATM    2  C2          0      69.016 109.235  -8.160  1.00  0.00     0.201 C 
HETATM    3  C3          0      69.473 108.180  -8.932  1.00  0.00     0.067 C 
HETATM    4  C4          0      69.394 106.865  -8.489  1.00  0.00     0.103 C 
HETATM    5  O13         0      68.887 106.628  -7.292  1.00  0.00    -0.307 OA
HETATM    6  C14         0      68.404 107.589  -6.534  1.00  0.00     0.107 C 
HETATM    7  C15         0      67.530 107.327  -5.490  1.00  0.00     0.049 C 
HETATM    8  C16         0      66.829 108.349  -4.861  1.00  0.00     0.093 C 
HETATM    9  C18         0      67.419 109.604  -4.947  1.00  0.00     0.048 C 
HETATM   10  C19         0      68.334 109.886  -5.953  1.00  0.00     0.096 C 
HETATM   11  C21         0      68.671 108.915  -6.856  1.00  0.00     0.084 C 
ENDROOT
BRANCH  10  12
HETATM   12  O20         0      68.579 111.212  -6.298  1.00  0.00    -0.359 OA
HETATM   13  H20         0      69.300 111.657  -5.870  1.00  0.00     0.218 HD
ENDBRANCH  10  12
BRANCH   4  14
HETATM   14  C5          0      69.311 105.818  -9.509  1.00  0.00     0.025 C 
HETATM   15  C6          0      68.708 104.590  -9.279  1.00  0.00     0.004 C 
HETATM   16  C7          0      67.968 104.032 -10.316  1.00  0.00     0.026 C 
HETATM   17  C8          0      67.938 104.606 -11.582  1.00  0.00     0.112 C 
HETATM   18  C10         0      69.026 105.416 -11.878  1.00  0.00     0.112 C 
HETATM   19  C12         0      69.696 106.031 -10.826  1.00  0.00     0.028 C 
BRANCH  17  20
HETATM   20  O9          0      66.803 104.527 -12.370  1.00  0.00    -0.357 OA
HETATM   21  H9          0      66.821 104.386 -13.309  1.00  0.00     0.218 HD
ENDBRANCH  17  20
BRANCH  18  22
HETATM   22  O11         0      69.142 105.861 -13.187  1.00  0.00    -0.357 OA
HETATM   23  H11         0      68.338 106.103 -13.632  1.00  0.00     0.218 HD
ENDBRANCH  18  22
ENDBRANCH   4  14
BRANCH   8  24
HETATM   24  O17         0      65.493 108.189  -4.479  1.00  0.00    -0.359 OA
HETATM   25  H17         0      64.955 108.929  -4.221  1.00  0.00     0.218 HD
ENDBRANCH   8  24
TORSDOF 5
ENDMDL
MODEL 4
REMARK VINA RESULT:       0.0      5.755      7.408
REMARK  5 active torsions:
REMARK  status: ('A' for Active; 'I' for Inactive)
REMARK    1  A    between atoms: C4_4  and  C5_5 
REMARK    2  A    between atoms: C8_8  and  O9_9 
REMARK    3  A    between atoms: C10_11  and  O11_12 
REMARK    4  A    between atoms: C16_18  and  O17_19 
REMARK    5  A    between atoms: C19_22  and  O20_23 
ROOT
HETATM    1  O1          0      69.694 108.912  -7.959  1.00  0.00    -0.286 OA
HETATM    2  C2          0      69.789 107.763  -8.470  1.00  0.00     0.201 C 
HETATM    3  C3          0      70.279 107.547  -9.747  1.00  0.00     0.067 C 
HETATM    4  C4          0      70.277 106.282 -10.324  1.00  0.00     0.103 C 
HETATM    5  O13         0      69.814 105.264  -9.620  1.00  0.00    -0.307 OA
HETATM    6  C14         0      69.303 105.420  -8.419  1.00  0.00     0.107 C 
HETATM    7  C15         0      68.470 104.467  -7.849  1.00  0.00     0.049 C 
HETATM    8  C16         0      67.735 104.744  -6.703  1.00  0.00     0.093 C 
HETATM    9  C18         0      68.259 105.749  -5.898  1.00  0.00     0.048 C 
HETATM   10  C19         0      69.132 106.691  -6.425  1.00  0.00     0.096 C 
HETATM   11  C21         0      69.494 106.620  -7.742  1.00  0.00     0.084 C 
ENDROOT
BRANCH  10  12
HETATM   12  O20         0      69.300 107.905  -5.767  1.00  0.00    -0.359 OA
HETATM   13  H20         0      68.567 108.508  -5.751  1.00  0.00     0.218 HD
ENDBRANCH  10  12
BRANCH   4  14
HETATM   14  C5          0      70.221 106.212 -11.785  1.00  0.00     0.025 C 
HETATM   15  C6          0      69.686 105.129 -12.466  1.00  0.00     0.004 C 
HETATM   16  C7          0      68.949 105.391 -13.617  1.00  0.00     0.026 C 
HETATM   17  C8          0      68.858 106.673 -14.148  1.00  0.00     0.112 C 
HETATM   18  C10         0      69.896 107.523 -13.793  1.00  0.00     0.112 C 
HETATM   19  C12         0      70.561 107.288 -12.595  1.00  0.00     0.028 C 
BRANCH  17  20
HETATM   20  O9          0      67.708 107.092 -14.795  1.00  0.00    -0.357 OA
HETATM   21  H9          0      67.104 106.503 -15.233  1.00  0.00     0.218 HD
ENDBRANCH  17  20
BRANCH  18  22
HETATM   22  O11         0      69.956 108.748 -14.443  1.00  0.00    -0.357 OA
HETATM   23  H11         0      70.206 108.736 -15.359  1.00  0.00     0.218 HD
ENDBRANCH  18  22
ENDBRANCH   4  14
BRANCH   8  24
HETATM   24  O17         0      66.419 104.293  -6.554  1.00  0.00    -0.359 OA
HETATM   25  H17         0      66.118 103.489  -6.960  1.00  0.00     0.218 HD
ENDBRANCH   8  24
TORSDOF 5
ENDMDL
MODEL 5
REMARK VINA RESULT:       0.0     10.215     12.180
REMARK  5 active torsions:
REMARK  status: ('A' for Active; 'I' for Inactive)
REMARK    1  A    between atoms: C4_4  and  C5_5 
REMARK    2  A    between atoms: C8_8  and  O9_9 
REMARK    3  A    between atoms: C10_11  and  O11_12 
REMARK    4  A    between atoms: C16_18  and  O17_19 
REMARK    5  A    between atoms: C19_22  and  O20_23 
ROOT
HETATM    1  O1          0      62.822 106.638  -3.350  1.00  0.00    -0.286 OA
HETATM    2  C2          0      63.168 107.588  -4.105  1.00  0.00     0.201 C 
HETATM    3  C3          0      63.600 107.394  -5.406  1.00  0.00     0.067 C 
HETATM    4  C4          0      64.073 108.446  -6.181  1.00  0.00     0.103 C 
HETATM    5  O13         0      64.087 109.661  -5.662  1.00  0.00    -0.307 OA
HETATM    6  C14         0      63.723 109.895  -4.420  1.00  0.00     0.107 C 
HETATM    7  C15         0      64.102 111.050  -3.752  1.00  0.00     0.049 C 
HETATM    8  C16         0      63.936 111.177  -2.378  1.00  0.00     0.093 C 
HETATM    9  C18         0      62.939 110.379  -1.831  1.00  0.00     0.048 C 
HETATM   10  C19         0      62.503 109.240  -2.495  1.00  0.00     0.096 C 
HETATM   11  C21         0      63.047 108.911  -3.706  1.00  0.00     0.084 C 
ENDROOT
BRANCH  10  12
HETATM   12  O20         0      61.854 108.240  -1.777  1.00  0.00    -0.359 OA
HETATM   13  H20         0      62.099 108.114  -0.869  1.00  0.00     0.218 HD
ENDBRANCH  10  12
BRANCH   4  14
HETATM   14  C5          0      65.031 108.121  -7.239  1.00  0.00     0.025 C 
HETATM   15  C6          0      65.968 109.030  -7.711  1.00  0.00     0.004 C 
HETATM   16  C7          0      67.233 108.546  -8.026  1.00  0.00     0.026 C 
HETATM   17  C8          0      67.521 107.185  -8.002  1.00  0.00     0.112 C 
HETATM   18  C10         0      66.416 106.357  -8.146  1.00  0.00     0.112 C 
HETATM   19  C12         0      65.175 106.835  -7.744  1.00  0.00     0.028 C 
BRANCH  17  20
HETATM   20  O9          0      68.780 106.733  -7.649  1.00  0.00    -0.357 OA
HETATM   21  H9          0      69.030 105.816  -7.649  1.00  0.00     0.218 HD
ENDBRANCH  17  20
BRANCH  18  22
HETATM   22  O11         0      66.664 105.002  -8.319  1.00  0.00    -0.357 OA
HETATM   23  H11         0      65.931 104.462  -8.588  1.00  0.00     0.218 HD
ENDBRANCH  18  22
ENDBRANCH   4  14
BRANCH   8  24
HETATM   24  O17         0      64.908 111.791  -1.580  1.00  0.00    -0.359 OA
HETATM   25  H17         0      64.760 111.962  -0.657  1.00  0.00     0.218 HD
ENDBRANCH   8  24
TORSDOF 5
ENDMDL
MODEL 6
REMARK VINA RESULT:       0.0      8.080     10.438
REMARK  5 active torsions:
REMARK  status: ('A' for Active; 'I' for Inactive)
REMARK    1  A    between atoms: C4_4  and  C5_5 
REMARK    2  A    between atoms: C8_8  and  O9_9 
REMARK    3  A    between atoms: C10_11  and  O11_12 
REMARK    4  A    between atoms: C16_18  and  O17_19 
REMARK    5  A    between atoms: C19_22  and  O20_23 
ROOT
HETATM    1  O1          0      69.136 113.353 -10.485  1.00  0.00    -0.286 OA
HETATM    2  C2          0      69.615 114.380  -9.929  1.00  0.00     0.201 C 
HETATM    3  C3          0      69.472 114.636  -8.576  1.00  0.00     0.067 C 
HETATM    4  C4          0      69.919 115.824  -8.009  1.00  0.00     0.103 C 
HETATM    5  O13         0      70.512 116.714  -8.784  1.00  0.00    -0.307 OA
HETATM    6  C14         0      70.639 116.537 -10.081  1.00  0.00     0.107 C 
HETATM    7  C15         0      70.882 117.597 -10.943  1.00  0.00     0.049 C 
HETATM    8  C16         0      70.763 117.449 -12.320  1.00  0.00     0.093 C 
HETATM    9  C18         0      70.923 116.150 -12.787  1.00  0.00     0.048 C 
HETATM   10  C19         0      70.734 115.067 -11.939  1.00  0.00     0.096 C 
HETATM   11  C21         0      70.403 115.281 -10.628  1.00  0.00     0.084 C 
ENDROOT
BRANCH  10  12
HETATM   12  O20         0      70.466 113.815 -12.484  1.00  0.00    -0.359 OA
HETATM   13  H20         0      71.094 113.454 -13.098  1.00  0.00     0.218 HD
ENDBRANCH  10  12
BRANCH   4  14
HETATM   14  C5          0      69.237 116.286  -6.798  1.00  0.00     0.025 C 
HETATM   15  C6          0      69.172 117.623  -6.436  1.00  0.00     0.004 C 
HETATM   16  C7          0      67.985 118.081  -5.871  1.00  0.00     0.026 C 
HETATM   17  C8          0      66.947 117.212  -5.552  1.00  0.00     0.112 C 
HETATM   18  C10         0      67.334 115.893  -5.357  1.00  0.00     0.112 C 
HETATM   19  C12         0      68.478 115.438  -6.002  1.00  0.00     0.028 C 
BRANCH  17  20
HETATM   20  O9          0      65.628 117.621  -5.641  1.00  0.00    -0.357 OA
HETATM   21  H9          0      65.161 118.054  -4.936  1.00  0.00     0.218 HD
ENDBRANCH  17  20
BRANCH  18  22
HETATM   22  O11         0      66.376 115.025  -4.854  1.00  0.00    -0.357 OA
HETATM   23  H11         0      66.478 114.103  -5.063  1.00  0.00     0.218 HD
ENDBRANCH  18  22
ENDBRANCH   4  14
BRANCH   8  24
HETATM   24  O17         0      70.197 118.452 -13.114  1.00  0.00    -0.359 OA
HETATM   25  H17         0      70.126 119.349 -12.810  1.00  0.00     0.218 HD
ENDBRANCH   8  24
TORSDOF 5
ENDMDL
MODEL 7
REMARK VINA RESULT:       0.0      4.853      6.940
REMARK  5 active torsions:
REMARK  status: ('A' for Active; 'I' for Inactive)
REMARK    1  A    between atoms: C4_4  and  C5_5 
REMARK    2  A    between atoms: C8_8  and  O9_9 
REMARK    3  A    between atoms: C10_11  and  O11_12 
REMARK    4  A    between atoms: C16_18  and  O17_19 
REMARK    5  A    between atoms: C19_22  and  O20_23 
ROOT
HETATM    1  O1          0      72.072 113.382  -8.775  1.00  0.00    -0.286 OA
HETATM    2  C2          0      71.768 113.102  -9.966  1.00  0.00     0.201 C 
HETATM    3  C3          0      71.072 111.956 -10.313  1.00  0.00     0.067 C 
HETATM    4  C4          0      70.839 111.620 -11.642  1.00  0.00     0.103 C 
HETATM    5  O13         0      71.278 112.430 -12.589  1.00  0.00    -0.307 OA
HETATM    6  C14         0      71.976 113.511 -12.315  1.00  0.00     0.107 C 
HETATM    7  C15         0      72.766 114.132 -13.271  1.00  0.00     0.049 C 
HETATM    8  C16         0      73.691 115.109 -12.920  1.00  0.00     0.093 C 
HETATM    9  C18         0      73.414 115.779 -11.735  1.00  0.00     0.048 C 
HETATM   10  C19         0      72.590 115.207 -10.776  1.00  0.00     0.096 C 
HETATM   11  C21         0      72.031 113.979 -11.007  1.00  0.00     0.084 C 
ENDROOT
BRANCH  10  12
HETATM   12  O20         0      72.665 115.652  -9.460  1.00  0.00    -0.359 OA
HETATM   13  H20         0      72.856 115.013  -8.784  1.00  0.00     0.218 HD
ENDBRANCH  10  12
BRANCH   4  14
HETATM   14  C5          0      70.669 110.199 -11.954  1.00  0.00     0.025 C 
HETATM   15  C6          0      70.965 109.662 -13.198  1.00  0.00     0.004 C 
HETATM   16  C7          0      71.549 108.400 -13.232  1.00  0.00     0.026 C 
HETATM   17  C8          0      71.711 107.639 -12.078  1.00  0.00     0.112 C 
HETATM   18  C10         0      70.845 107.965 -11.043  1.00  0.00     0.112 C 
HETATM   19  C12         0      70.342 109.259 -10.985  1.00  0.00     0.028 C 
BRANCH  17  20
HETATM   20  O9          0      72.793 106.789 -11.936  1.00  0.00    -0.357 OA
HETATM   21  H9          0      73.204 106.592 -11.102  1.00  0.00     0.218 HD
ENDBRANCH  17  20
BRANCH  18  22
HETATM   22  O11         0      70.834 107.119  -9.943  1.00  0.00    -0.357 OA
HETATM   23  H11         0      71.011 107.512  -9.097  1.00  0.00     0.218 HD
ENDBRANCH  18  22
ENDBRANCH   4  14
BRANCH   8  24
HETATM   24  O17         0      74.952 115.169 -13.523  1.00  0.00    -0.359 OA
HETATM   25  H17         0      75.752 115.146 -13.011  1.00  0.00     0.218 HD
ENDBRANCH   8  24
TORSDOF 5
ENDMDL
MODEL 8
REMARK VINA RESULT:       0.0      7.465      8.209
REMARK  5 active torsions:
REMARK  status: ('A' for Active; 'I' for Inactive)
REMARK    1  A    between atoms: C4_4  and  C5_5 
REMARK    2  A    between atoms: C8_8  and  O9_9 
REMARK    3  A    between atoms: C10_11  and  O11_12 
REMARK    4  A    between atoms: C16_18  and  O17_19 
REMARK    5  A    between atoms: C19_22  and  O20_23 
ROOT
HETATM    1  O1          0      72.147 114.883  -9.989  1.00  0.00    -0.286 OA
HETATM    2  C2          0      71.711 114.948 -11.171  1.00  0.00     0.201 C 
HETATM    3  C3          0      70.430 114.557 -11.520  1.00  0.00     0.067 C 
HETATM    4  C4          0      70.009 114.542 -12.845  1.00  0.00     0.103 C 
HETATM    5  O13         0      70.853 114.930 -13.784  1.00  0.00    -0.307 OA
HETATM    6  C14         0      72.092 115.275 -13.511  1.00  0.00     0.107 C 
HETATM    7  C15         0      73.078 115.293 -14.487  1.00  0.00     0.049 C 
HETATM    8  C16         0      74.423 115.406 -14.153  1.00  0.00     0.093 C 
HETATM    9  C18         0      74.674 116.016 -12.930  1.00  0.00     0.048 C 
HETATM   10  C19         0      73.694 116.057 -11.947  1.00  0.00     0.096 C 
HETATM   11  C21         0      72.465 115.508 -12.191  1.00  0.00     0.084 C 
ENDROOT
BRANCH  10  12
HETATM   12  O20         0      74.067 116.258 -10.622  1.00  0.00    -0.359 OA
HETATM   13  H20         0      73.527 115.870  -9.944  1.00  0.00     0.218 HD
ENDBRANCH  10  12
BRANCH   4  14
HETATM   14  C5          0      68.946 113.599 -13.199  1.00  0.00     0.025 C 
HETATM   15  C6          0      68.795 113.081 -14.477  1.00  0.00     0.004 C 
HETATM   16  C7          0      68.412 111.749 -14.592  1.00  0.00     0.026 C 
HETATM   17  C8          0      68.060 110.993 -13.479  1.00  0.00     0.112 C 
HETATM   18  C10         0      67.636 111.735 -12.385  1.00  0.00     0.112 C 
HETATM   19  C12         0      68.102 113.038 -12.250  1.00  0.00     0.028 C 
BRANCH  17  20
HETATM   20  O9          0      68.326 109.636 -13.430  1.00  0.00    -0.357 OA
HETATM   21  H9          0      67.715 108.990 -13.094  1.00  0.00     0.218 HD
ENDBRANCH  17  20
BRANCH  18  22
HETATM   22  O11         0      67.096 111.031 -11.318  1.00  0.00    -0.357 OA
HETATM   23  H11         0      66.239 110.640 -11.451  1.00  0.00     0.218 HD
ENDBRANCH  18  22
ENDBRANCH   4  14
BRANCH   8  24
HETATM   24  O17         0      75.405 114.670 -14.824  1.00  0.00    -0.359 OA
HETATM   25  H17         0      75.529 114.742 -15.763  1.00  0.00     0.218 HD
ENDBRANCH   8  24
TORSDOF 5
ENDMDL
MODEL 9
REMARK VINA RESULT:       0.0     11.087     13.323
REMARK  5 active torsions:
REMARK  status: ('A' for Active; 'I' for Inactive)
REMARK    1  A    between atoms: C4_4  and  C5_5 
REMARK    2  A    between atoms: C8_8  and  O9_9 
REMARK    3  A    between atoms: C10_11  and  O11_12 
REMARK    4  A    between atoms: C16_18  and  O17_19 
REMARK    5  A    between atoms: C19_22  and  O20_23 
ROOT
HETATM    1  O1          0      62.881 110.542  -7.132  1.00  0.00    -0.286 OA
HETATM    2  C2          0      62.856 109.325  -6.803  1.00  0.00     0.201 C 
HETATM    3  C3          0      63.050 108.895  -5.501  1.00  0.00     0.067 C 
HETATM    4  C4          0      63.121 107.544  -5.182  1.00  0.00     0.103 C 
HETATM    5  O13         0      62.978 106.655  -6.150  1.00  0.00    -0.307 OA
HETATM    6  C14         0      62.829 107.009  -7.408  1.00  0.00     0.107 C 
HETATM    7  C15         0      63.077 106.127  -8.450  1.00  0.00     0.049 C 
HETATM    8  C16         0      63.167 106.570  -9.764  1.00  0.00     0.093 C 
HETATM    9  C18         0      62.495 107.757 -10.031  1.00  0.00     0.048 C 
HETATM   10  C19         0      62.189 108.640  -9.005  1.00  0.00     0.096 C 
HETATM   11  C21         0      62.537 108.333  -7.718  1.00  0.00     0.084 C 
ENDROOT
BRANCH  10  12
HETATM   12  O20         0      61.928 109.973  -9.310  1.00  0.00    -0.359 OA
HETATM   13  H20         0      62.659 110.523  -9.564  1.00  0.00     0.218 HD
ENDBRANCH  10  12
BRANCH   4  14
HETATM   14  C5          0      63.894 107.175  -3.995  1.00  0.00     0.025 C 
HETATM   15  C6          0      64.500 105.935  -3.848  1.00  0.00     0.004 C 
HETATM   16  C7          0      65.750 105.897  -3.239  1.00  0.00     0.026 C 
HETATM   17  C8          0      66.322 107.033  -2.675  1.00  0.00     0.112 C 
HETATM   18  C10         0      65.414 108.020  -2.313  1.00  0.00     0.112 C 
HETATM   19  C12         0      64.206 108.088  -2.997  1.00  0.00     0.028 C 
BRANCH  17  20
HETATM   20  O9          0      67.693 107.216  -2.686  1.00  0.00    -0.357 OA
HETATM   21  H9          0      68.280 106.852  -2.034  1.00  0.00     0.218 HD
ENDBRANCH  17  20
BRANCH  18  22
HETATM   22  O11         0      65.908 109.087  -1.578  1.00  0.00    -0.357 OA
HETATM   23  H11         0      65.490 109.264  -0.742  1.00  0.00     0.218 HD
ENDBRANCH  18  22
ENDBRANCH   4  14
BRANCH   8  24
HETATM   24  O17         0      64.125 106.053 -10.644  1.00  0.00    -0.359 OA
HETATM   25  H17         0      64.598 106.610 -11.250  1.00  0.00     0.218 HD
ENDBRANCH   8  24
TORSDOF 5
ENDMDL
