MODEL 1
REMARK VINA RESULT:      -6.4      0.000      0.000
REMARK  5 active torsions:
REMARK  status: ('A' for Active; 'I' for Inactive)
REMARK    1  A    between atoms: C4_4  and  C5_5 
REMARK    2  A    between atoms: C8_8  and  O9_9 
REMARK    3  A    between atoms: C10_11  and  O11_12 
REMARK    4  A    between atoms: C16_18  and  O17_19 
REMARK    5  A    between atoms: C19_22  and  O20_23 
ROOT
HETATM    1  O1          0      47.380  42.663  22.864  1.00  0.00    -0.286 OA
HETATM    2  C2          0      46.914  42.322  23.986  1.00  0.00     0.201 C 
HETATM    3  C3          0      45.716  42.808  24.480  1.00  0.00     0.067 C 
HETATM    4  C4          0      45.276  42.497  25.762  1.00  0.00     0.103 C 
HETATM    5  O13         0      46.018  41.701  26.512  1.00  0.00    -0.307 OA
HETATM    6  C14         0      47.182  41.242  26.105  1.00  0.00     0.107 C 
HETATM    7  C15         0      48.128  40.757  26.997  1.00  0.00     0.049 C 
HETATM    8  C16         0      49.437  40.515  26.599  1.00  0.00     0.093 C 
HETATM    9  C18         0      49.601  40.269  25.241  1.00  0.00     0.048 C 
HETATM   10  C19         0      48.651  40.699  24.325  1.00  0.00     0.096 C 
HETATM   11  C21         0      47.534  41.357  24.765  1.00  0.00     0.084 C 
ENDROOT
BRANCH  10  12
HETATM   12  O20         0      49.010  40.845  22.989  1.00  0.00    -0.359 OA
HETATM   13  H20         0      49.925  40.996  22.788  1.00  0.00     0.218 HD
ENDBRANCH  10  12
BRANCH   4  14
HETATM   14  C5          0      44.391  43.461  26.419  1.00  0.00     0.025 C 
HETATM   15  C6          0      43.748  44.480  25.733  1.00  0.00     0.004 C 
HETATM   16  C7          0      42.447  44.793  26.115  1.00  0.00     0.026 C 
HETATM   17  C8          0      41.853  44.208  27.227  1.00  0.00     0.112 C 
HETATM   18  C10         0      42.745  43.722  28.173  1.00  0.00     0.112 C 
HETATM   19  C12         0      44.011  43.336  27.749  1.00  0.00     0.028 C 
BRANCH  17  20
HETATM   20  O9          0      40.492  43.957  27.254  1.00  0.00    -0.357 OA
HETATM   21  H9          0      40.006  43.765  28.048  1.00  0.00     0.218 HD
ENDBRANCH  17  20
BRANCH  18  22
HETATM   22  O11         0      42.212  43.301  29.383  1.00  0.00    -0.357 OA
HETATM   23  H11         0      41.567  42.603  29.349  1.00  0.00     0.218 HD
ENDBRANCH  18  22
ENDBRANCH   4  14
BRANCH   8  24
HETATM   24  O17         0      50.521  40.829  27.426  1.00  0.00    -0.359 OA
HETATM   25  H17         0      51.406  40.894  27.086  1.00  0.00     0.218 HD
ENDBRANCH   8  24
TORSDOF 5
ENDMDL
MODEL 2
REMARK VINA RESULT:      -6.4     13.888     15.121
REMARK  5 active torsions:
REMARK  status: ('A' for Active; 'I' for Inactive)
REMARK    1  A    between atoms: C4_4  and  C5_5 
REMARK    2  A    between atoms: C8_8  and  O9_9 
REMARK    3  A    between atoms: C10_11  and  O11_12 
REMARK    4  A    between atoms: C16_18  and  O17_19 
REMARK    5  A    between atoms: C19_22  and  O20_23 
ROOT
HETATM    1  O1          0      51.596  51.560  23.998  1.00  0.00    -0.286 OA
HETATM    2  C2          0      52.341  52.543  24.263  1.00  0.00     0.201 C 
HETATM    3  C3          0      52.998  52.681  25.474  1.00  0.00     0.067 C 
HETATM    4  C4          0      53.730  53.823  25.780  1.00  0.00     0.103 C 
HETATM    5  O13         0      53.811  54.785  24.878  1.00  0.00    -0.307 OA
HETATM    6  C14         0      53.176  54.721  23.728  1.00  0.00     0.107 C 
HETATM    7  C15         0      52.926  55.854  22.967  1.00  0.00     0.049 C 
HETATM    8  C16         0      52.043  55.822  21.894  1.00  0.00     0.093 C 
HETATM    9  C18         0      51.865  54.570  21.318  1.00  0.00     0.048 C 
HETATM   10  C19         0      52.151  53.416  22.035  1.00  0.00     0.096 C 
HETATM   11  C21         0      52.627  53.512  23.314  1.00  0.00     0.084 C 
ENDROOT
BRANCH  10  12
HETATM   12  O20         0      51.577  52.211  21.642  1.00  0.00    -0.359 OA
HETATM   13  H20         0      51.025  51.755  22.266  1.00  0.00     0.218 HD
ENDBRANCH  10  12
BRANCH   4  14
HETATM   14  C5          0      53.870  54.170  27.195  1.00  0.00     0.025 C 
HETATM   15  C6          0      53.954  53.216  28.199  1.00  0.00     0.004 C 
HETATM   16  C7          0      54.824  53.466  29.255  1.00  0.00     0.026 C 
HETATM   17  C8          0      55.488  54.681  29.381  1.00  0.00     0.112 C 
HETATM   18  C10         0      54.878  55.745  28.730  1.00  0.00     0.112 C 
HETATM   19  C12         0      54.081  55.474  27.625  1.00  0.00     0.028 C 
BRANCH  17  20
HETATM   20  O9          0      56.756  54.743  29.932  1.00  0.00    -0.357 OA
HETATM   21  H9          0      57.063  55.464  30.469  1.00  0.00     0.218 HD
ENDBRANCH  17  20
BRANCH  18  22
HETATM   22  O11         0      55.391  57.011  28.978  1.00  0.00    -0.357 OA
HETATM   23  H11         0      54.920  57.551  29.602  1.00  0.00     0.218 HD
ENDBRANCH  18  22
ENDBRANCH   4  14
BRANCH   8  24
HETATM   24  O17         0      51.163  56.880  21.642  1.00  0.00    -0.359 OA
HETATM   25  H17         0      50.473  56.811  20.993  1.00  0.00     0.218 HD
ENDBRANCH   8  24
TORSDOF 5
ENDMDL
MODEL 3
REMARK VINA RESULT:      -6.2     13.383     14.226
REMARK  5 active torsions:
REMARK  status: ('A' for Active; 'I' for Inactive)
REMARK    1  A    between atoms: C4_4  and  C5_5 
REMARK    2  A    between atoms: C8_8  and  O9_9 
REMARK    3  A    between atoms: C10_11  and  O11_12 
REMARK    4  A    between atoms: C16_18  and  O17_19 
REMARK    5  A    between atoms: C19_22  and  O20_23 
ROOT
HETATM    1  O1          0      54.305  56.843  27.628  1.00  0.00    -0.286 OA
HETATM    2  C2          0      54.272  55.667  27.170  1.00  0.00     0.201 C 
HETATM    3  C3          0      53.843  55.373  25.887  1.00  0.00     0.067 C 
HETATM    4  C4          0      53.720  54.061  25.443  1.00  0.00     0.103 C 
HETATM    5  O13         0      54.042  53.079  26.267  1.00  0.00    -0.307 OA
HETATM    6  C14         0      54.419  53.302  27.507  1.00  0.00     0.107 C 
HETATM    7  C15         0      54.370  52.310  28.476  1.00  0.00     0.049 C 
HETATM    8  C16         0      54.522  52.610  29.824  1.00  0.00     0.093 C 
HETATM    9  C18         0      55.228  53.777  30.090  1.00  0.00     0.048 C 
HETATM   10  C19         0      55.337  54.770  29.127  1.00  0.00     0.096 C 
HETATM   11  C21         0      54.758  54.593  27.899  1.00  0.00     0.084 C 
ENDROOT
BRANCH  10  12
HETATM   12  O20         0      55.645  56.069  29.520  1.00  0.00    -0.359 OA
HETATM   13  H20         0      55.386  56.781  28.948  1.00  0.00     0.218 HD
ENDBRANCH  10  12
BRANCH   4  14
HETATM   14  C5          0      52.742  53.801  24.385  1.00  0.00     0.025 C 
HETATM   15  C6          0      53.020  53.006  23.283  1.00  0.00     0.004 C 
HETATM   16  C7          0      52.005  52.178  22.814  1.00  0.00     0.026 C 
HETATM   17  C8          0      50.718  52.234  23.336  1.00  0.00     0.112 C 
HETATM   18  C10         0      50.391  53.439  23.944  1.00  0.00     0.112 C 
HETATM   19  C12         0      51.417  54.207  24.480  1.00  0.00     0.028 C 
BRANCH  17  20
HETATM   20  O9          0      49.934  51.097  23.413  1.00  0.00    -0.357 OA
HETATM   21  H9          0      49.291  50.852  22.757  1.00  0.00     0.218 HD
ENDBRANCH  17  20
BRANCH  18  22
HETATM   22  O11         0      49.065  53.618  24.311  1.00  0.00    -0.357 OA
HETATM   23  H11         0      48.480  52.879  24.186  1.00  0.00     0.218 HD
ENDBRANCH  18  22
ENDBRANCH   4  14
BRANCH   8  24
HETATM   24  O17         0      53.745  51.981  30.803  1.00  0.00    -0.359 OA
HETATM   25  H17         0      53.036  52.433  31.245  1.00  0.00     0.218 HD
ENDBRANCH   8  24
TORSDOF 5
ENDMDL
MODEL 4
REMARK VINA RESULT:      -5.9     11.015     13.106
REMARK  5 active torsions:
REMARK  status: ('A' for Active; 'I' for Inactive)
REMARK    1  A    between atoms: C4_4  and  C5_5 
REMARK    2  A    between atoms: C8_8  and  O9_9 
REMARK    3  A    between atoms: C10_11  and  O11_12 
REMARK    4  A    between atoms: C16_18  and  O17_19 
REMARK    5  A    between atoms: C19_22  and  O20_23 
ROOT
HETATM    1  O1          0      47.746  54.326  25.869  1.00  0.00    -0.286 OA
HETATM    2  C2          0      48.352  53.497  25.135  1.00  0.00     0.201 C 
HETATM    3  C3          0      49.597  53.751  24.586  1.00  0.00     0.067 C 
HETATM    4  C4          0      50.196  52.864  23.698  1.00  0.00     0.103 C 
HETATM    5  O13         0      49.562  51.746  23.393  1.00  0.00    -0.307 OA
HETATM    6  C14         0      48.362  51.474  23.857  1.00  0.00     0.107 C 
HETATM    7  C15         0      47.540  50.535  23.251  1.00  0.00     0.049 C 
HETATM    8  C16         0      46.194  50.434  23.582  1.00  0.00     0.093 C 
HETATM    9  C18         0      45.864  50.901  24.848  1.00  0.00     0.048 C 
HETATM   10  C19         0      46.689  51.805  25.503  1.00  0.00     0.096 C 
HETATM   11  C21         0      47.844  52.228  24.905  1.00  0.00     0.084 C 
ENDROOT
BRANCH  10  12
HETATM   12  O20         0      46.164  52.583  26.531  1.00  0.00    -0.359 OA
HETATM   13  H20         0      45.220  52.620  26.624  1.00  0.00     0.218 HD
ENDBRANCH  10  12
BRANCH   4  14
HETATM   14  C5          0      51.146  53.422  22.733  1.00  0.00     0.025 C 
HETATM   15  C6          0      50.871  54.551  21.975  1.00  0.00     0.004 C 
HETATM   16  C7          0      51.913  55.446  21.751  1.00  0.00     0.026 C 
HETATM   17  C8          0      53.215  55.165  22.151  1.00  0.00     0.112 C 
HETATM   18  C10         0      53.495  53.814  22.306  1.00  0.00     0.112 C 
HETATM   19  C12         0      52.448  52.953  22.614  1.00  0.00     0.028 C 
BRANCH  17  20
HETATM   20  O9          0      54.065  56.178  22.558  1.00  0.00    -0.357 OA
HETATM   21  H9          0      54.318  56.323  23.463  1.00  0.00     0.218 HD
ENDBRANCH  17  20
BRANCH  18  22
HETATM   22  O11         0      54.821  53.468  22.519  1.00  0.00    -0.357 OA
HETATM   23  H11         0      55.161  53.587  23.399  1.00  0.00     0.218 HD
ENDBRANCH  18  22
ENDBRANCH   4  14
BRANCH   8  24
HETATM   24  O17         0      45.219  50.203  22.605  1.00  0.00    -0.359 OA
HETATM   25  H17         0      45.135  49.362  22.172  1.00  0.00     0.218 HD
ENDBRANCH   8  24
TORSDOF 5
ENDMDL
MODEL 5
REMARK VINA RESULT:      -5.6     10.306     12.330
REMARK  5 active torsions:
REMARK  status: ('A' for Active; 'I' for Inactive)
REMARK    1  A    between atoms: C4_4  and  C5_5 
REMARK    2  A    between atoms: C8_8  and  O9_9 
REMARK    3  A    between atoms: C10_11  and  O11_12 
REMARK    4  A    between atoms: C16_18  and  O17_19 
REMARK    5  A    between atoms: C19_22  and  O20_23 
ROOT
HETATM    1  O1          0      46.797  50.036  23.587  1.00  0.00    -0.286 OA
HETATM    2  C2          0      47.510  51.006  23.962  1.00  0.00     0.201 C 
HETATM    3  C3          0      48.612  51.448  23.250  1.00  0.00     0.067 C 
HETATM    4  C4          0      49.440  52.453  23.737  1.00  0.00     0.103 C 
HETATM    5  O13         0      49.149  53.007  24.901  1.00  0.00    -0.307 OA
HETATM    6  C14         0      48.137  52.599  25.635  1.00  0.00     0.107 C 
HETATM    7  C15         0      48.059  52.878  26.992  1.00  0.00     0.049 C 
HETATM    8  C16         0      47.134  52.239  27.809  1.00  0.00     0.093 C 
HETATM    9  C18         0      46.007  51.758  27.154  1.00  0.00     0.048 C 
HETATM   10  C19         0      46.035  51.512  25.788  1.00  0.00     0.096 C 
HETATM   11  C21         0      47.178  51.761  25.077  1.00  0.00     0.084 C 
ENDROOT
BRANCH  10  12
HETATM   12  O20         0      45.096  50.649  25.232  1.00  0.00    -0.359 OA
HETATM   13  H20         0      45.256  49.715  25.298  1.00  0.00     0.218 HD
ENDBRANCH  10  12
BRANCH   4  14
HETATM   14  C5          0      50.833  52.449  23.287  1.00  0.00     0.025 C 
HETATM   15  C6          0      51.191  52.491  21.947  1.00  0.00     0.004 C 
HETATM   16  C7          0      52.304  53.251  21.601  1.00  0.00     0.026 C 
HETATM   17  C8          0      53.114  53.840  22.566  1.00  0.00     0.112 C 
HETATM   18  C10         0      53.059  53.237  23.816  1.00  0.00     0.112 C 
HETATM   19  C12         0      51.900  52.556  24.170  1.00  0.00     0.028 C 
BRANCH  17  20
HETATM   20  O9          0      53.742  55.049  22.323  1.00  0.00    -0.357 OA
HETATM   21  H9          0      54.685  55.163  22.324  1.00  0.00     0.218 HD
ENDBRANCH  17  20
BRANCH  18  22
HETATM   22  O11         0      53.983  53.663  24.759  1.00  0.00    -0.357 OA
HETATM   23  H11         0      54.754  53.120  24.881  1.00  0.00     0.218 HD
ENDBRANCH  18  22
ENDBRANCH   4  14
BRANCH   8  24
HETATM   24  O17         0      47.470  51.819  29.101  1.00  0.00    -0.359 OA
HETATM   25  H17         0      48.253  51.310  29.273  1.00  0.00     0.218 HD
ENDBRANCH   8  24
TORSDOF 5
ENDMDL
MODEL 6
REMARK VINA RESULT:      -5.6     13.395     14.521
REMARK  5 active torsions:
REMARK  status: ('A' for Active; 'I' for Inactive)
REMARK    1  A    between atoms: C4_4  and  C5_5 
REMARK    2  A    between atoms: C8_8  and  O9_9 
REMARK    3  A    between atoms: C10_11  and  O11_12 
REMARK    4  A    between atoms: C16_18  and  O17_19 
REMARK    5  A    between atoms: C19_22  and  O20_23 
ROOT
HETATM    1  O1          0      51.120  55.209  27.928  1.00  0.00    -0.286 OA
HETATM    2  C2          0      52.143  54.928  27.245  1.00  0.00     0.201 C 
HETATM    3  C3          0      52.319  55.364  25.943  1.00  0.00     0.067 C 
HETATM    4  C4          0      53.406  54.955  25.179  1.00  0.00     0.103 C 
HETATM    5  O13         0      54.298  54.147  25.725  1.00  0.00    -0.307 OA
HETATM    6  C14         0      54.159  53.675  26.944  1.00  0.00     0.107 C 
HETATM    7  C15         0      54.844  52.547  27.373  1.00  0.00     0.049 C 
HETATM    8  C16         0      54.508  51.907  28.560  1.00  0.00     0.093 C 
HETATM    9  C18         0      53.874  52.709  29.501  1.00  0.00     0.048 C 
HETATM   10  C19         0      53.219  53.870  29.112  1.00  0.00     0.096 C 
HETATM   11  C21         0      53.211  54.235  27.793  1.00  0.00     0.084 C 
ENDROOT
BRANCH  10  12
HETATM   12  O20         0      52.248  54.415  29.946  1.00  0.00    -0.359 OA
HETATM   13  H20         0      52.530  54.790  30.771  1.00  0.00     0.218 HD
ENDBRANCH  10  12
BRANCH   4  14
HETATM   14  C5          0      53.233  54.934  23.725  1.00  0.00     0.025 C 
HETATM   15  C6          0      53.961  54.096  22.893  1.00  0.00     0.004 C 
HETATM   16  C7          0      53.298  53.531  21.808  1.00  0.00     0.026 C 
HETATM   17  C8          0      51.995  53.890  21.481  1.00  0.00     0.112 C 
HETATM   18  C10         0      51.603  55.138  21.948  1.00  0.00     0.112 C 
HETATM   19  C12         0      52.223  55.642  23.085  1.00  0.00     0.028 C 
BRANCH  17  20
HETATM   20  O9          0      51.125  52.970  20.924  1.00  0.00    -0.357 OA
HETATM   21  H9          0      50.182  53.087  20.892  1.00  0.00     0.218 HD
ENDBRANCH  17  20
BRANCH  18  22
HETATM   22  O11         0      50.386  55.625  21.494  1.00  0.00    -0.357 OA
HETATM   23  H11         0      49.929  56.237  22.060  1.00  0.00     0.218 HD
ENDBRANCH  18  22
ENDBRANCH   4  14
BRANCH   8  24
HETATM   24  O17         0      54.500  50.511  28.658  1.00  0.00    -0.359 OA
HETATM   25  H17         0      54.984  50.056  29.337  1.00  0.00     0.218 HD
ENDBRANCH   8  24
TORSDOF 5
ENDMDL
MODEL 7
REMARK VINA RESULT:      -5.5     15.018     16.018
REMARK  5 active torsions:
REMARK  status: ('A' for Active; 'I' for Inactive)
REMARK    1  A    between atoms: C4_4  and  C5_5 
REMARK    2  A    between atoms: C8_8  and  O9_9 
REMARK    3  A    between atoms: C10_11  and  O11_12 
REMARK    4  A    between atoms: C16_18  and  O17_19 
REMARK    5  A    between atoms: C19_22  and  O20_23 
ROOT
HETATM    1  O1          0      51.693  52.432  27.058  1.00  0.00    -0.286 OA
HETATM    2  C2          0      52.764  53.098  27.066  1.00  0.00     0.201 C 
HETATM    3  C3          0      53.407  53.471  28.234  1.00  0.00     0.067 C 
HETATM    4  C4          0      54.529  54.292  28.218  1.00  0.00     0.103 C 
HETATM    5  O13         0      54.997  54.704  27.053  1.00  0.00    -0.307 OA
HETATM    6  C14         0      54.403  54.409  25.917  1.00  0.00     0.107 C 
HETATM    7  C15         0      54.634  55.140  24.760  1.00  0.00     0.049 C 
HETATM    8  C16         0      53.825  54.992  23.640  1.00  0.00     0.093 C 
HETATM    9  C18         0      53.171  53.770  23.545  1.00  0.00     0.048 C 
HETATM   10  C19         0      52.964  52.991  24.676  1.00  0.00     0.096 C 
HETATM   11  C21         0      53.424  53.422  25.891  1.00  0.00     0.084 C 
ENDROOT
BRANCH  10  12
HETATM   12  O20         0      51.964  52.024  24.663  1.00  0.00    -0.359 OA
HETATM   13  H20         0      52.071  51.265  25.222  1.00  0.00     0.218 HD
ENDBRANCH  10  12
BRANCH   4  14
HETATM   14  C5          0      54.778  55.110  29.406  1.00  0.00     0.025 C 
HETATM   15  C6          0      55.030  54.563  30.656  1.00  0.00     0.004 C 
HETATM   16  C7          0      55.977  55.195  31.456  1.00  0.00     0.026 C 
HETATM   17  C8          0      56.555  56.404  31.086  1.00  0.00     0.112 C 
HETATM   18  C10         0      55.806  57.155  30.190  1.00  0.00     0.112 C 
HETATM   19  C12         0      54.929  56.489  29.342  1.00  0.00     0.028 C 
BRANCH  17  20
HETATM   20  O9          0      57.861  56.701  31.433  1.00  0.00    -0.357 OA
HETATM   21  H9          0      58.342  57.445  31.091  1.00  0.00     0.218 HD
ENDBRANCH  17  20
BRANCH  18  22
HETATM   22  O11         0      56.242  58.447  29.934  1.00  0.00    -0.357 OA
HETATM   23  H11         0      57.106  58.680  30.253  1.00  0.00     0.218 HD
ENDBRANCH  18  22
ENDBRANCH   4  14
BRANCH   8  24
HETATM   24  O17         0      53.442  56.094  22.867  1.00  0.00    -0.359 OA
HETATM   25  H17         0      53.289  56.019  21.933  1.00  0.00     0.218 HD
ENDBRANCH   8  24
TORSDOF 5
ENDMDL
MODEL 8
REMARK VINA RESULT:      -5.2      3.997      5.823
REMARK  5 active torsions:
REMARK  status: ('A' for Active; 'I' for Inactive)
REMARK    1  A    between atoms: C4_4  and  C5_5 
REMARK    2  A    between atoms: C8_8  and  O9_9 
REMARK    3  A    between atoms: C10_11  and  O11_12 
REMARK    4  A    between atoms: C16_18  and  O17_19 
REMARK    5  A    between atoms: C19_22  and  O20_23 
ROOT
HETATM    1  O1          0      46.501  42.102  23.523  1.00  0.00    -0.286 OA
HETATM    2  C2          0      45.310  42.519  23.540  1.00  0.00     0.201 C 
HETATM    3  C3          0      44.609  42.834  22.390  1.00  0.00     0.067 C 
HETATM    4  C4          0      43.335  43.389  22.442  1.00  0.00     0.103 C 
HETATM    5  O13         0      42.781  43.596  23.624  1.00  0.00    -0.307 OA
HETATM    6  C14         0      43.418  43.349  24.747  1.00  0.00     0.107 C 
HETATM    7  C15         0      43.027  43.920  25.950  1.00  0.00     0.049 C 
HETATM    8  C16         0      43.842  43.864  27.074  1.00  0.00     0.093 C 
HETATM    9  C18         0      44.746  42.809  27.091  1.00  0.00     0.048 C 
HETATM   10  C19         0      45.124  42.184  25.910  1.00  0.00     0.096 C 
HETATM   11  C21         0      44.589  42.599  24.722  1.00  0.00     0.084 C 
ENDROOT
BRANCH  10  12
HETATM   12  O20         0      46.311  41.459  25.874  1.00  0.00    -0.359 OA
HETATM   13  H20         0      46.255  40.511  25.900  1.00  0.00     0.218 HD
ENDBRANCH  10  12
BRANCH   4  14
HETATM   14  C5          0      42.920  44.224  21.313  1.00  0.00     0.025 C 
HETATM   15  C6          0      41.719  44.041  20.644  1.00  0.00     0.004 C 
HETATM   16  C7          0      41.034  45.178  20.227  1.00  0.00     0.026 C 
HETATM   17  C8          0      41.587  46.449  20.350  1.00  0.00     0.112 C 
HETATM   18  C10         0      42.973  46.474  20.424  1.00  0.00     0.112 C 
HETATM   19  C12         0      43.628  45.354  20.925  1.00  0.00     0.028 C 
BRANCH  17  20
HETATM   20  O9          0      40.785  47.550  20.592  1.00  0.00    -0.357 OA
HETATM   21  H9          0      40.634  48.242  19.959  1.00  0.00     0.218 HD
ENDBRANCH  17  20
BRANCH  18  22
HETATM   22  O11         0      43.584  47.718  20.358  1.00  0.00    -0.357 OA
HETATM   23  H11         0      44.511  47.753  20.563  1.00  0.00     0.218 HD
ENDBRANCH  18  22
ENDBRANCH   4  14
BRANCH   8  24
HETATM   24  O17         0      43.972  44.958  27.936  1.00  0.00    -0.359 OA
HETATM   25  H17         0      44.378  44.875  28.791  1.00  0.00     0.218 HD
ENDBRANCH   8  24
TORSDOF 5
ENDMDL
MODEL 9
REMARK VINA RESULT:      -5.2      6.408      8.358
REMARK  5 active torsions:
REMARK  status: ('A' for Active; 'I' for Inactive)
REMARK    1  A    between atoms: C4_4  and  C5_5 
REMARK    2  A    between atoms: C8_8  and  O9_9 
REMARK    3  A    between atoms: C10_11  and  O11_12 
REMARK    4  A    between atoms: C16_18  and  O17_19 
REMARK    5  A    between atoms: C19_22  and  O20_23 
ROOT
HETATM    1  O1          0      45.679  51.311  27.520  1.00  0.00    -0.286 OA
HETATM    2  C2          0      45.513  50.779  26.389  1.00  0.00     0.201 C 
HETATM    3  C3          0      44.582  49.780  26.159  1.00  0.00     0.067 C 
HETATM    4  C4          0      44.491  49.139  24.929  1.00  0.00     0.103 C 
HETATM    5  O13         0      45.302  49.514  23.956  1.00  0.00    -0.307 OA
HETATM    6  C14         0      46.228  50.430  24.132  1.00  0.00     0.107 C 
HETATM    7  C15         0      47.316  50.544  23.278  1.00  0.00     0.049 C 
HETATM    8  C16         0      48.411  51.334  23.606  1.00  0.00     0.093 C 
HETATM    9  C18         0      48.145  52.364  24.500  1.00  0.00     0.048 C 
HETATM   10  C19         0      47.039  52.304  25.337  1.00  0.00     0.096 C 
HETATM   11  C21         0      46.194  51.230  25.269  1.00  0.00     0.084 C 
ENDROOT
BRANCH  10  12
HETATM   12  O20         0      47.017  53.080  26.492  1.00  0.00    -0.359 OA
HETATM   13  H20         0      47.618  53.813  26.548  1.00  0.00     0.218 HD
ENDBRANCH  10  12
BRANCH   4  14
HETATM   14  C5          0      43.969  47.771  24.924  1.00  0.00     0.025 C 
HETATM   15  C6          0      43.601  47.111  23.760  1.00  0.00     0.004 C 
HETATM   16  C7          0      43.894  45.754  23.669  1.00  0.00     0.026 C 
HETATM   17  C8          0      44.412  45.045  24.748  1.00  0.00     0.112 C 
HETATM   18  C10         0      44.149  45.607  25.990  1.00  0.00     0.112 C 
HETATM   19  C12         0      43.944  46.979  26.065  1.00  0.00     0.028 C 
BRANCH  17  20
HETATM   20  O9          0      45.291  43.995  24.550  1.00  0.00    -0.357 OA
HETATM   21  H9          0      46.007  43.787  25.139  1.00  0.00     0.218 HD
ENDBRANCH  17  20
BRANCH  18  22
HETATM   22  O11         0      44.476  44.848  27.105  1.00  0.00    -0.357 OA
HETATM   23  H11         0      45.241  45.119  27.600  1.00  0.00     0.218 HD
ENDBRANCH  18  22
ENDBRANCH   4  14
BRANCH   8  24
HETATM   24  O17         0      49.719  50.919  23.330  1.00  0.00    -0.359 OA
HETATM   25  H17         0      50.002  50.026  23.486  1.00  0.00     0.218 HD
ENDBRANCH   8  24
TORSDOF 5
ENDMDL
