MODEL 1
REMARK VINA RESULT:      -6.2      0.000      0.000
REMARK  5 active torsions:
REMARK  status: ('A' for Active; 'I' for Inactive)
REMARK    1  A    between atoms: C4_4  and  C5_5 
REMARK    2  A    between atoms: C8_8  and  O9_9 
REMARK    3  A    between atoms: C10_11  and  O11_12 
REMARK    4  A    between atoms: C16_18  and  O17_19 
REMARK    5  A    between atoms: C19_22  and  O20_23 
ROOT
HETATM    1  O1          0      18.110  86.290 -22.781  1.00  0.00    -0.286 OA
HETATM    2  C2          0      17.347  85.776 -23.644  1.00  0.00     0.201 C 
HETATM    3  C3          0      15.966  85.812 -23.542  1.00  0.00     0.067 C 
HETATM    4  C4          0      15.151  85.150 -24.452  1.00  0.00     0.103 C 
HETATM    5  O13         0      15.716  84.488 -25.447  1.00  0.00    -0.307 OA
HETATM    6  C14         0      17.022  84.390 -25.568  1.00  0.00     0.107 C 
HETATM    7  C15         0      17.612  83.400 -26.340  1.00  0.00     0.049 C 
HETATM    8  C16         0      18.976  83.142 -26.264  1.00  0.00     0.093 C 
HETATM    9  C18         0      19.751  84.210 -25.829  1.00  0.00     0.048 C 
HETATM   10  C19         0      19.183  85.242 -25.095  1.00  0.00     0.096 C 
HETATM   11  C21         0      17.845  85.216 -24.810  1.00  0.00     0.084 C 
ENDROOT
BRANCH  10  12
HETATM   12  O20         0      20.002  86.049 -24.311  1.00  0.00    -0.359 OA
HETATM   13  H20         0      20.244  86.902 -24.652  1.00  0.00     0.218 HD
ENDBRANCH  10  12
BRANCH   4  14
HETATM   14  C5          0      13.831  84.724 -23.983  1.00  0.00     0.025 C 
HETATM   15  C6          0      13.432  83.395 -23.964  1.00  0.00     0.004 C 
HETATM   16  C7          0      12.663  82.968 -22.887  1.00  0.00     0.026 C 
HETATM   17  C8          0      12.191  83.859 -21.929  1.00  0.00     0.112 C 
HETATM   18  C10         0      12.095  85.176 -22.359  1.00  0.00     0.112 C 
HETATM   19  C12         0      12.937  85.599 -23.381  1.00  0.00     0.028 C 
BRANCH  17  20
HETATM   20  O9          0      12.044  83.469 -20.610  1.00  0.00    -0.357 OA
HETATM   21  H9          0      11.683  82.631 -20.344  1.00  0.00     0.218 HD
ENDBRANCH  17  20
BRANCH  18  22
HETATM   22  O11         0      11.456  86.069 -21.511  1.00  0.00    -0.357 OA
HETATM   23  H11         0      10.514  86.148 -21.601  1.00  0.00     0.218 HD
ENDBRANCH  18  22
ENDBRANCH   4  14
BRANCH   8  24
HETATM   24  O17         0      19.473  81.834 -26.292  1.00  0.00    -0.359 OA
HETATM   25  H17         0      20.329  81.618 -25.940  1.00  0.00     0.218 HD
ENDBRANCH   8  24
TORSDOF 5
ENDMDL
MODEL 2
REMARK VINA RESULT:      -5.8      1.984      2.508
REMARK  5 active torsions:
REMARK  status: ('A' for Active; 'I' for Inactive)
REMARK    1  A    between atoms: C4_4  and  C5_5 
REMARK    2  A    between atoms: C8_8  and  O9_9 
REMARK    3  A    between atoms: C10_11  and  O11_12 
REMARK    4  A    between atoms: C16_18  and  O17_19 
REMARK    5  A    between atoms: C19_22  and  O20_23 
ROOT
HETATM    1  O1          0      17.937  85.200 -23.183  1.00  0.00    -0.286 OA
HETATM    2  C2          0      17.257  84.560 -24.032  1.00  0.00     0.201 C 
HETATM    3  C3          0      15.905  84.307 -23.873  1.00  0.00     0.067 C 
HETATM    4  C4          0      15.203  83.512 -24.771  1.00  0.00     0.103 C 
HETATM    5  O13         0      15.845  83.009 -25.810  1.00  0.00    -0.307 OA
HETATM    6  C14         0      17.136  83.188 -25.988  1.00  0.00     0.107 C 
HETATM    7  C15         0      17.881  82.361 -26.817  1.00  0.00     0.049 C 
HETATM    8  C16         0      19.270  82.391 -26.805  1.00  0.00     0.093 C 
HETATM    9  C18         0      19.828  83.585 -26.366  1.00  0.00     0.048 C 
HETATM   10  C19         0      19.094  84.457 -25.574  1.00  0.00     0.096 C 
HETATM   11  C21         0      17.805  84.147 -25.236  1.00  0.00     0.084 C 
ENDROOT
BRANCH  10  12
HETATM   12  O20         0      19.764  85.397 -24.796  1.00  0.00    -0.359 OA
HETATM   13  H20         0      20.671  85.225 -24.573  1.00  0.00     0.218 HD
ENDBRANCH  10  12
BRANCH   4  14
HETATM   14  C5          0      14.023  82.810 -24.264  1.00  0.00     0.025 C 
HETATM   15  C6          0      13.374  83.177 -23.093  1.00  0.00     0.004 C 
HETATM   16  C7          0      11.986  83.098 -23.074  1.00  0.00     0.026 C 
HETATM   17  C8          0      11.272  82.546 -24.132  1.00  0.00     0.112 C 
HETATM   18  C10         0      11.996  81.665 -24.924  1.00  0.00     0.112 C 
HETATM   19  C12         0      13.375  81.820 -24.992  1.00  0.00     0.028 C 
BRANCH  17  20
HETATM   20  O9          0      10.015  83.022 -24.464  1.00  0.00    -0.357 OA
HETATM   21  H9          0       9.412  83.402 -23.836  1.00  0.00     0.218 HD
ENDBRANCH  17  20
BRANCH  18  22
HETATM   22  O11         0      11.286  80.944 -25.874  1.00  0.00    -0.357 OA
HETATM   23  H11         0      11.681  80.138 -26.185  1.00  0.00     0.218 HD
ENDBRANCH  18  22
ENDBRANCH   4  14
BRANCH   8  24
HETATM   24  O17         0      20.025  81.216 -26.899  1.00  0.00    -0.359 OA
HETATM   25  H17         0      20.564  81.029 -27.658  1.00  0.00     0.218 HD
ENDBRANCH   8  24
TORSDOF 5
ENDMDL
MODEL 3
REMARK VINA RESULT:      -5.7      2.098      2.883
REMARK  5 active torsions:
REMARK  status: ('A' for Active; 'I' for Inactive)
REMARK    1  A    between atoms: C4_4  and  C5_5 
REMARK    2  A    between atoms: C8_8  and  O9_9 
REMARK    3  A    between atoms: C10_11  and  O11_12 
REMARK    4  A    between atoms: C16_18  and  O17_19 
REMARK    5  A    between atoms: C19_22  and  O20_23 
ROOT
HETATM    1  O1          0      14.829  88.311 -23.975  1.00  0.00    -0.286 OA
HETATM    2  C2          0      14.690  87.062 -24.090  1.00  0.00     0.201 C 
HETATM    3  C3          0      13.460  86.433 -24.011  1.00  0.00     0.067 C 
HETATM    4  C4          0      13.347  85.048 -24.038  1.00  0.00     0.103 C 
HETATM    5  O13         0      14.445  84.324 -24.163  1.00  0.00    -0.307 OA
HETATM    6  C14         0      15.641  84.869 -24.204  1.00  0.00     0.107 C 
HETATM    7  C15         0      16.788  84.137 -23.934  1.00  0.00     0.049 C 
HETATM    8  C16         0      18.012  84.762 -23.729  1.00  0.00     0.093 C 
HETATM    9  C18         0      18.135  86.016 -24.314  1.00  0.00     0.048 C 
HETATM   10  C19         0      17.007  86.757 -24.640  1.00  0.00     0.096 C 
HETATM   11  C21         0      15.763  86.240 -24.400  1.00  0.00     0.084 C 
ENDROOT
BRANCH  10  12
HETATM   12  O20         0      17.121  88.134 -24.805  1.00  0.00    -0.359 OA
HETATM   13  H20         0      17.928  88.472 -25.173  1.00  0.00     0.218 HD
ENDBRANCH  10  12
BRANCH   4  14
HETATM   14  C5          0      12.185  84.457 -23.370  1.00  0.00     0.025 C 
HETATM   15  C6          0      10.994  84.190 -24.029  1.00  0.00     0.004 C 
HETATM   16  C7          0      10.316  83.024 -23.688  1.00  0.00     0.026 C 
HETATM   17  C8          0      10.735  82.219 -22.634  1.00  0.00     0.112 C 
HETATM   18  C10         0      11.503  82.869 -21.677  1.00  0.00     0.112 C 
HETATM   19  C12         0      12.238  83.982 -22.066  1.00  0.00     0.028 C 
BRANCH  17  20
HETATM   20  O9          0      10.563  80.847 -22.679  1.00  0.00    -0.357 OA
HETATM   21  H9          0      11.207  80.245 -23.036  1.00  0.00     0.218 HD
ENDBRANCH  17  20
BRANCH  18  22
HETATM   22  O11         0      11.787  82.165 -20.516  1.00  0.00    -0.357 OA
HETATM   23  H11         0      11.098  81.611 -20.169  1.00  0.00     0.218 HD
ENDBRANCH  18  22
ENDBRANCH   4  14
BRANCH   8  24
HETATM   24  O17         0      18.901  84.319 -22.743  1.00  0.00    -0.359 OA
HETATM   25  H17         0      19.792  84.066 -22.952  1.00  0.00     0.218 HD
ENDBRANCH   8  24
TORSDOF 5
ENDMDL
MODEL 4
REMARK VINA RESULT:      -5.5      1.285      2.681
REMARK  5 active torsions:
REMARK  status: ('A' for Active; 'I' for Inactive)
REMARK    1  A    between atoms: C4_4  and  C5_5 
REMARK    2  A    between atoms: C8_8  and  O9_9 
REMARK    3  A    between atoms: C10_11  and  O11_12 
REMARK    4  A    between atoms: C16_18  and  O17_19 
REMARK    5  A    between atoms: C19_22  and  O20_23 
ROOT
HETATM    1  O1          0      17.168  82.488 -26.946  1.00  0.00    -0.286 OA
HETATM    2  C2          0      16.905  83.082 -25.865  1.00  0.00     0.201 C 
HETATM    3  C3          0      15.700  82.931 -25.200  1.00  0.00     0.067 C 
HETATM    4  C4          0      15.395  83.676 -24.067  1.00  0.00     0.103 C 
HETATM    5  O13         0      16.292  84.532 -23.609  1.00  0.00    -0.307 OA
HETATM    6  C14         0      17.436  84.741 -24.224  1.00  0.00     0.107 C 
HETATM    7  C15         0      18.187  85.886 -24.000  1.00  0.00     0.049 C 
HETATM    8  C16         0      19.252  86.224 -24.827  1.00  0.00     0.093 C 
HETATM    9  C18         0      19.833  85.156 -25.500  1.00  0.00     0.048 C 
HETATM   10  C19         0      19.126  83.979 -25.701  1.00  0.00     0.096 C 
HETATM   11  C21         0      17.851  83.862 -25.218  1.00  0.00     0.084 C 
ENDROOT
BRANCH  10  12
HETATM   12  O20         0      19.521  83.113 -26.716  1.00  0.00    -0.359 OA
HETATM   13  H20         0      18.884  82.487 -27.040  1.00  0.00     0.218 HD
ENDBRANCH  10  12
BRANCH   4  14
HETATM   14  C5          0      13.979  83.923 -23.789  1.00  0.00     0.025 C 
HETATM   15  C6          0      13.128  82.946 -23.293  1.00  0.00     0.004 C 
HETATM   16  C7          0      12.177  83.334 -22.355  1.00  0.00     0.026 C 
HETATM   17  C8          0      11.987  84.670 -22.019  1.00  0.00     0.112 C 
HETATM   18  C10         0      12.405  85.576 -22.985  1.00  0.00     0.112 C 
HETATM   19  C12         0      13.417  85.192 -23.857  1.00  0.00     0.028 C 
BRANCH  17  20
HETATM   20  O9          0      11.610  85.033 -20.738  1.00  0.00    -0.357 OA
HETATM   21  H9          0      10.787  84.776 -20.338  1.00  0.00     0.218 HD
ENDBRANCH  17  20
BRANCH  18  22
HETATM   22  O11         0      12.068  86.907 -22.786  1.00  0.00    -0.357 OA
HETATM   23  H11         0      12.546  87.553 -23.295  1.00  0.00     0.218 HD
ENDBRANCH  18  22
ENDBRANCH   4  14
BRANCH   8  24
HETATM   24  O17         0      19.488  87.550 -25.205  1.00  0.00    -0.359 OA
HETATM   25  H17         0      19.514  88.254 -24.568  1.00  0.00     0.218 HD
ENDBRANCH   8  24
TORSDOF 5
ENDMDL
MODEL 5
REMARK VINA RESULT:      -5.4      2.276      6.879
REMARK  5 active torsions:
REMARK  status: ('A' for Active; 'I' for Inactive)
REMARK    1  A    between atoms: C4_4  and  C5_5 
REMARK    2  A    between atoms: C8_8  and  O9_9 
REMARK    3  A    between atoms: C10_11  and  O11_12 
REMARK    4  A    between atoms: C16_18  and  O17_19 
REMARK    5  A    between atoms: C19_22  and  O20_23 
ROOT
HETATM    1  O1          0      11.147  87.278 -24.563  1.00  0.00    -0.286 OA
HETATM    2  C2          0      11.812  86.333 -24.057  1.00  0.00     0.201 C 
HETATM    3  C3          0      13.193  86.353 -23.965  1.00  0.00     0.067 C 
HETATM    4  C4          0      13.908  85.256 -23.497  1.00  0.00     0.103 C 
HETATM    5  O13         0      13.242  84.181 -23.115  1.00  0.00    -0.307 OA
HETATM    6  C14         0      11.933  84.096 -23.216  1.00  0.00     0.107 C 
HETATM    7  C15         0      11.277  82.874 -23.203  1.00  0.00     0.049 C 
HETATM    8  C16         0       9.938  82.770 -23.564  1.00  0.00     0.093 C 
HETATM    9  C18         0       9.197  83.935 -23.409  1.00  0.00     0.048 C 
HETATM   10  C19         0       9.826  85.172 -23.371  1.00  0.00     0.096 C 
HETATM   11  C21         0      11.189  85.243 -23.469  1.00  0.00     0.084 C 
ENDROOT
BRANCH  10  12
HETATM   12  O20         0       9.091  86.318 -23.654  1.00  0.00    -0.359 OA
HETATM   13  H20         0       8.861  86.487 -24.560  1.00  0.00     0.218 HD
ENDBRANCH  10  12
BRANCH   4  14
HETATM   14  C5          0      15.284  85.100 -23.973  1.00  0.00     0.025 C 
HETATM   15  C6          0      16.216  86.126 -23.926  1.00  0.00     0.004 C 
HETATM   16  C7          0      17.528  85.791 -23.605  1.00  0.00     0.026 C 
HETATM   17  C8          0      17.929  84.467 -23.467  1.00  0.00     0.112 C 
HETATM   18  C10         0      17.131  83.546 -24.134  1.00  0.00     0.112 C 
HETATM   19  C12         0      15.801  83.873 -24.367  1.00  0.00     0.028 C 
BRANCH  17  20
HETATM   20  O9          0      18.914  84.115 -22.562  1.00  0.00    -0.357 OA
HETATM   21  H9          0      18.775  84.065 -21.623  1.00  0.00     0.218 HD
ENDBRANCH  17  20
BRANCH  18  22
HETATM   22  O11         0      17.591  82.238 -24.187  1.00  0.00    -0.357 OA
HETATM   23  H11         0      18.523  82.104 -24.056  1.00  0.00     0.218 HD
ENDBRANCH  18  22
ENDBRANCH   4  14
BRANCH   8  24
HETATM   24  O17         0       9.470  81.695 -24.328  1.00  0.00    -0.359 OA
HETATM   25  H17         0       9.409  80.817 -23.971  1.00  0.00     0.218 HD
ENDBRANCH   8  24
TORSDOF 5
ENDMDL
MODEL 6
REMARK VINA RESULT:      -5.4      3.262      6.662
REMARK  5 active torsions:
REMARK  status: ('A' for Active; 'I' for Inactive)
REMARK    1  A    between atoms: C4_4  and  C5_5 
REMARK    2  A    between atoms: C8_8  and  O9_9 
REMARK    3  A    between atoms: C10_11  and  O11_12 
REMARK    4  A    between atoms: C16_18  and  O17_19 
REMARK    5  A    between atoms: C19_22  and  O20_23 
ROOT
HETATM    1  O1          0      15.405  82.124 -29.896  1.00  0.00    -0.286 OA
HETATM    2  C2          0      15.352  82.567 -28.716  1.00  0.00     0.201 C 
HETATM    3  C3          0      16.387  83.279 -28.135  1.00  0.00     0.067 C 
HETATM    4  C4          0      16.345  83.667 -26.800  1.00  0.00     0.103 C 
HETATM    5  O13         0      15.278  83.360 -26.084  1.00  0.00    -0.307 OA
HETATM    6  C14         0      14.285  82.653 -26.576  1.00  0.00     0.107 C 
HETATM    7  C15         0      13.378  81.997 -25.756  1.00  0.00     0.049 C 
HETATM    8  C16         0      12.494  81.054 -26.267  1.00  0.00     0.093 C 
HETATM    9  C18         0      12.202  81.196 -27.618  1.00  0.00     0.048 C 
HETATM   10  C19         0      13.064  81.887 -28.458  1.00  0.00     0.096 C 
HETATM   11  C21         0      14.204  82.448 -27.949  1.00  0.00     0.084 C 
ENDROOT
BRANCH  10  12
HETATM   12  O20         0      13.006  81.659 -29.830  1.00  0.00    -0.359 OA
HETATM   13  H20         0      13.400  82.303 -30.405  1.00  0.00     0.218 HD
ENDBRANCH  10  12
BRANCH   4  14
HETATM   14  C5          0      17.626  83.849 -26.115  1.00  0.00     0.025 C 
HETATM   15  C6          0      18.707  84.492 -26.700  1.00  0.00     0.004 C 
HETATM   16  C7          0      19.487  85.310 -25.889  1.00  0.00     0.026 C 
HETATM   17  C8          0      19.283  85.382 -24.515  1.00  0.00     0.112 C 
HETATM   18  C10         0      18.648  84.276 -23.964  1.00  0.00     0.112 C 
HETATM   19  C12         0      17.807  83.525 -24.777  1.00  0.00     0.028 C 
BRANCH  17  20
HETATM   20  O9          0      19.512  86.559 -23.825  1.00  0.00    -0.357 OA
HETATM   21  H9          0      20.367  86.964 -23.740  1.00  0.00     0.218 HD
ENDBRANCH  17  20
BRANCH  18  22
HETATM   22  O11         0      18.589  84.211 -22.580  1.00  0.00    -0.357 OA
HETATM   23  H11         0      18.000  84.817 -22.145  1.00  0.00     0.218 HD
ENDBRANCH  18  22
ENDBRANCH   4  14
BRANCH   8  24
HETATM   24  O17         0      12.201  79.877 -25.570  1.00  0.00    -0.359 OA
HETATM   25  H17         0      11.686  79.885 -24.772  1.00  0.00     0.218 HD
ENDBRANCH   8  24
TORSDOF 5
ENDMDL
MODEL 7
REMARK VINA RESULT:      -5.3      4.131      6.617
REMARK  5 active torsions:
REMARK  status: ('A' for Active; 'I' for Inactive)
REMARK    1  A    between atoms: C4_4  and  C5_5 
REMARK    2  A    between atoms: C8_8  and  O9_9 
REMARK    3  A    between atoms: C10_11  and  O11_12 
REMARK    4  A    between atoms: C16_18  and  O17_19 
REMARK    5  A    between atoms: C19_22  and  O20_23 
ROOT
HETATM    1  O1          0      16.133  82.424 -28.967  1.00  0.00    -0.286 OA
HETATM    2  C2          0      17.087  83.250 -28.952  1.00  0.00     0.201 C 
HETATM    3  C3          0      17.837  83.509 -27.818  1.00  0.00     0.067 C 
HETATM    4  C4          0      18.815  84.497 -27.801  1.00  0.00     0.103 C 
HETATM    5  O13         0      19.039  85.187 -28.905  1.00  0.00    -0.307 OA
HETATM    6  C14         0      18.331  85.007 -29.998  1.00  0.00     0.107 C 
HETATM    7  C15         0      18.278  85.963 -31.001  1.00  0.00     0.049 C 
HETATM    8  C16         0      17.341  85.886 -32.024  1.00  0.00     0.093 C 
HETATM    9  C18         0      16.861  84.609 -32.286  1.00  0.00     0.048 C 
HETATM   10  C19         0      16.940  83.614 -31.320  1.00  0.00     0.096 C 
HETATM   11  C21         0      17.510  83.889 -30.107  1.00  0.00     0.084 C 
ENDROOT
BRANCH  10  12
HETATM   12  O20         0      16.098  82.510 -31.410  1.00  0.00    -0.359 OA
HETATM   13  H20         0      15.161  82.665 -31.417  1.00  0.00     0.218 HD
ENDBRANCH  10  12
BRANCH   4  14
HETATM   14  C5          0      19.119  85.116 -26.509  1.00  0.00     0.025 C 
HETATM   15  C6          0      19.150  86.491 -26.323  1.00  0.00     0.004 C 
HETATM   16  C7          0      18.649  86.990 -25.125  1.00  0.00     0.026 C 
HETATM   17  C8          0      18.254  86.148 -24.091  1.00  0.00     0.112 C 
HETATM   18  C10         0      18.835  84.887 -24.117  1.00  0.00     0.112 C 
HETATM   19  C12         0      19.250  84.376 -25.341  1.00  0.00     0.028 C 
BRANCH  17  20
HETATM   20  O9          0      17.209  86.495 -23.253  1.00  0.00    -0.357 OA
HETATM   21  H9          0      16.788  87.347 -23.260  1.00  0.00     0.218 HD
ENDBRANCH  17  20
BRANCH  18  22
HETATM   22  O11         0      18.625  84.075 -23.012  1.00  0.00    -0.357 OA
HETATM   23  H11         0      18.724  83.139 -23.141  1.00  0.00     0.218 HD
ENDBRANCH  18  22
ENDBRANCH   4  14
BRANCH   8  24
HETATM   24  O17         0      16.692  87.029 -32.506  1.00  0.00    -0.359 OA
HETATM   25  H17         0      16.996  87.486 -33.281  1.00  0.00     0.218 HD
ENDBRANCH   8  24
TORSDOF 5
ENDMDL
MODEL 8
REMARK VINA RESULT:      -5.3      1.995      2.674
REMARK  5 active torsions:
REMARK  status: ('A' for Active; 'I' for Inactive)
REMARK    1  A    between atoms: C4_4  and  C5_5 
REMARK    2  A    between atoms: C8_8  and  O9_9 
REMARK    3  A    between atoms: C10_11  and  O11_12 
REMARK    4  A    between atoms: C16_18  and  O17_19 
REMARK    5  A    between atoms: C19_22  and  O20_23 
ROOT
HETATM    1  O1          0      17.982  82.505 -24.379  1.00  0.00    -0.286 OA
HETATM    2  C2          0      17.088  83.229 -24.896  1.00  0.00     0.201 C 
HETATM    3  C3          0      15.936  83.596 -24.221  1.00  0.00     0.067 C 
HETATM    4  C4          0      14.920  84.308 -24.849  1.00  0.00     0.103 C 
HETATM    5  O13         0      15.075  84.655 -26.114  1.00  0.00    -0.307 OA
HETATM    6  C14         0      16.132  84.299 -26.812  1.00  0.00     0.107 C 
HETATM    7  C15         0      16.127  84.302 -28.199  1.00  0.00     0.049 C 
HETATM    8  C16         0      17.141  83.691 -28.926  1.00  0.00     0.093 C 
HETATM    9  C18         0      18.353  83.572 -28.257  1.00  0.00     0.048 C 
HETATM   10  C19         0      18.400  83.612 -26.870  1.00  0.00     0.096 C 
HETATM   11  C21         0      17.246  83.786 -26.156  1.00  0.00     0.084 C 
ENDROOT
BRANCH  10  12
HETATM   12  O20         0      19.499  83.071 -26.211  1.00  0.00    -0.359 OA
HETATM   13  H20         0      19.351  82.337 -25.626  1.00  0.00     0.218 HD
ENDBRANCH  10  12
BRANCH   4  14
HETATM   14  C5          0      13.563  84.139 -24.326  1.00  0.00     0.025 C 
HETATM   15  C6          0      12.459  83.954 -25.145  1.00  0.00     0.004 C 
HETATM   16  C7          0      11.479  83.064 -24.716  1.00  0.00     0.026 C 
HETATM   17  C8          0      11.527  82.479 -23.455  1.00  0.00     0.112 C 
HETATM   18  C10         0      12.271  83.183 -22.517  1.00  0.00     0.112 C 
HETATM   19  C12         0      13.300  84.001 -22.969  1.00  0.00     0.028 C 
BRANCH  17  20
HETATM   20  O9          0      11.044  81.199 -23.249  1.00  0.00    -0.357 OA
HETATM   21  H9          0      11.591  80.422 -23.252  1.00  0.00     0.218 HD
ENDBRANCH  17  20
BRANCH  18  22
HETATM   22  O11         0      12.197  82.748 -21.202  1.00  0.00    -0.357 OA
HETATM   23  H11         0      12.992  82.391 -20.822  1.00  0.00     0.218 HD
ENDBRANCH  18  22
ENDBRANCH   4  14
BRANCH   8  24
HETATM   24  O17         0      16.867  82.960 -30.087  1.00  0.00    -0.359 OA
HETATM   25  H17         0      16.019  82.998 -30.513  1.00  0.00     0.218 HD
ENDBRANCH   8  24
TORSDOF 5
ENDMDL
MODEL 9
REMARK VINA RESULT:      -5.0      1.938      6.726
REMARK  5 active torsions:
REMARK  status: ('A' for Active; 'I' for Inactive)
REMARK    1  A    between atoms: C4_4  and  C5_5 
REMARK    2  A    between atoms: C8_8  and  O9_9 
REMARK    3  A    between atoms: C10_11  and  O11_12 
REMARK    4  A    between atoms: C16_18  and  O17_19 
REMARK    5  A    between atoms: C19_22  and  O20_23 
ROOT
HETATM    1  O1          0      12.683  85.017 -26.628  1.00  0.00    -0.286 OA
HETATM    2  C2          0      13.246  84.812 -25.518  1.00  0.00     0.201 C 
HETATM    3  C3          0      14.606  84.987 -25.323  1.00  0.00     0.067 C 
HETATM    4  C4          0      15.218  84.656 -24.119  1.00  0.00     0.103 C 
HETATM    5  O13         0      14.471  84.184 -23.136  1.00  0.00    -0.307 OA
HETATM    6  C14         0      13.182  83.964 -23.281  1.00  0.00     0.107 C 
HETATM    7  C15         0      12.485  83.119 -22.430  1.00  0.00     0.049 C 
HETATM    8  C16         0      11.198  82.691 -22.732  1.00  0.00     0.093 C 
HETATM    9  C18         0      10.486  83.529 -23.583  1.00  0.00     0.048 C 
HETATM   10  C19         0      11.151  84.420 -24.414  1.00  0.00     0.096 C 
HETATM   11  C21         0      12.517  84.486 -24.385  1.00  0.00     0.084 C 
ENDROOT
BRANCH  10  12
HETATM   12  O20         0      10.498  84.919 -25.537  1.00  0.00    -0.359 OA
HETATM   13  H20         0      10.835  85.714 -25.931  1.00  0.00     0.218 HD
ENDBRANCH  10  12
BRANCH   4  14
HETATM   14  C5          0      16.635  84.291 -24.165  1.00  0.00     0.025 C 
HETATM   15  C6          0      17.115  83.240 -24.932  1.00  0.00     0.004 C 
HETATM   16  C7          0      18.341  83.413 -25.567  1.00  0.00     0.026 C 
HETATM   17  C8          0      19.128  84.537 -25.340  1.00  0.00     0.112 C 
HETATM   18  C10         0      18.884  85.181 -24.135  1.00  0.00     0.112 C 
HETATM   19  C12         0      17.622  85.061 -23.565  1.00  0.00     0.028 C 
BRANCH  17  20
HETATM   20  O9          0      19.921  85.061 -26.345  1.00  0.00    -0.357 OA
HETATM   21  H9          0      20.844  84.862 -26.447  1.00  0.00     0.218 HD
ENDBRANCH  17  20
BRANCH  18  22
HETATM   22  O11         0      19.764  86.192 -23.773  1.00  0.00    -0.357 OA
HETATM   23  H11         0      20.580  86.245 -24.257  1.00  0.00     0.218 HD
ENDBRANCH  18  22
ENDBRANCH   4  14
BRANCH   8  24
HETATM   24  O17         0      10.788  81.378 -22.481  1.00  0.00    -0.359 OA
HETATM   25  H17         0      10.208  80.913 -23.073  1.00  0.00     0.218 HD
ENDBRANCH   8  24
TORSDOF 5
ENDMDL
