MODEL 1
REMARK VINA RESULT:      -5.2      0.000      0.000
REMARK  5 active torsions:
REMARK  status: ('A' for Active; 'I' for Inactive)
REMARK    1  A    between atoms: C4_4  and  C5_5 
REMARK    2  A    between atoms: C8_8  and  O9_9 
REMARK    3  A    between atoms: C10_11  and  O11_12 
REMARK    4  A    between atoms: C16_18  and  O17_19 
REMARK    5  A    between atoms: C19_22  and  O20_23 
ROOT
HETATM    1  O1          0      49.191  19.811  -4.254  1.00  0.00    -0.286 OA
HETATM    2  C2          0      48.069  19.708  -4.822  1.00  0.00     0.201 C 
HETATM    3  C3          0      47.902  19.079  -6.044  1.00  0.00     0.067 C 
HETATM    4  C4          0      46.675  19.069  -6.697  1.00  0.00     0.103 C 
HETATM    5  O13         0      45.644  19.660  -6.119  1.00  0.00    -0.307 OA
HETATM    6  C14         0      45.756  20.303  -4.977  1.00  0.00     0.107 C 
HETATM    7  C15         0      44.818  21.241  -4.571  1.00  0.00     0.049 C 
HETATM    8  C16         0      45.066  22.095  -3.503  1.00  0.00     0.093 C 
HETATM    9  C18         0      45.994  21.626  -2.580  1.00  0.00     0.048 C 
HETATM   10  C19         0      46.917  20.654  -2.940  1.00  0.00     0.096 C 
HETATM   11  C21         0      46.903  20.141  -4.208  1.00  0.00     0.084 C 
ENDROOT
BRANCH  10  12
HETATM   12  O20         0      48.081  20.511  -2.191  1.00  0.00    -0.359 OA
HETATM   13  H20         0      48.904  20.759  -2.595  1.00  0.00     0.218 HD
ENDBRANCH  10  12
BRANCH   4  14
HETATM   14  C5          0      46.693  18.953  -8.156  1.00  0.00     0.025 C 
HETATM   15  C6          0      47.620  19.611  -8.951  1.00  0.00     0.004 C 
HETATM   16  C7          0      48.117  18.931 -10.058  1.00  0.00     0.026 C 
HETATM   17  C8          0      47.614  17.692 -10.440  1.00  0.00     0.112 C 
HETATM   18  C10         0      46.324  17.429  -9.999  1.00  0.00     0.112 C 
HETATM   19  C12         0      45.881  18.058  -8.841  1.00  0.00     0.028 C 
BRANCH  17  20
HETATM   20  O9          0      48.434  16.743 -11.026  1.00  0.00    -0.357 OA
HETATM   21  H9          0      49.018  16.176 -10.536  1.00  0.00     0.218 HD
ENDBRANCH  17  20
BRANCH  18  22
HETATM   22  O11         0      45.705  16.296 -10.506  1.00  0.00    -0.357 OA
HETATM   23  H11         0      45.137  15.815  -9.915  1.00  0.00     0.218 HD
ENDBRANCH  18  22
ENDBRANCH   4  14
BRANCH   8  24
HETATM   24  O17         0      44.678  23.439  -3.538  1.00  0.00    -0.359 OA
HETATM   25  H17         0      44.562  23.904  -4.358  1.00  0.00     0.218 HD
ENDBRANCH   8  24
TORSDOF 5
ENDMDL
MODEL 2
REMARK VINA RESULT:      -5.1      1.776      2.291
REMARK  5 active torsions:
REMARK  status: ('A' for Active; 'I' for Inactive)
REMARK    1  A    between atoms: C4_4  and  C5_5 
REMARK    2  A    between atoms: C8_8  and  O9_9 
REMARK    3  A    between atoms: C10_11  and  O11_12 
REMARK    4  A    between atoms: C16_18  and  O17_19 
REMARK    5  A    between atoms: C19_22  and  O20_23 
ROOT
HETATM    1  O1          0      48.984  19.663  -3.209  1.00  0.00    -0.286 OA
HETATM    2  C2          0      48.066  19.672  -4.075  1.00  0.00     0.201 C 
HETATM    3  C3          0      48.225  19.139  -5.342  1.00  0.00     0.067 C 
HETATM    4  C4          0      47.233  19.254  -6.310  1.00  0.00     0.103 C 
HETATM    5  O13         0      46.108  19.871  -5.996  1.00  0.00    -0.307 OA
HETATM    6  C14         0      45.921  20.427  -4.819  1.00  0.00     0.107 C 
HETATM    7  C15         0      44.948  21.395  -4.615  1.00  0.00     0.049 C 
HETATM    8  C16         0      44.921  22.157  -3.453  1.00  0.00     0.093 C 
HETATM    9  C18         0      45.528  21.567  -2.350  1.00  0.00     0.048 C 
HETATM   10  C19         0      46.471  20.563  -2.517  1.00  0.00     0.096 C 
HETATM   11  C21         0      46.795  20.138  -3.777  1.00  0.00     0.084 C 
ENDROOT
BRANCH  10  12
HETATM   12  O20         0      47.367  20.293  -1.487  1.00  0.00    -0.359 OA
HETATM   13  H20         0      47.044  20.328  -0.595  1.00  0.00     0.218 HD
ENDBRANCH  10  12
BRANCH   4  14
HETATM   14  C5          0      47.659  19.234  -7.711  1.00  0.00     0.025 C 
HETATM   15  C6          0      46.950  18.572  -8.703  1.00  0.00     0.004 C 
HETATM   16  C7          0      46.870  19.180  -9.952  1.00  0.00     0.026 C 
HETATM   17  C8          0      47.581  20.338 -10.247  1.00  0.00     0.112 C 
HETATM   18  C10         0      48.701  20.548  -9.455  1.00  0.00     0.112 C 
HETATM   19  C12         0      48.719  20.001  -8.177  1.00  0.00     0.028 C 
BRANCH  17  20
HETATM   20  O9          0      47.066  21.284 -11.116  1.00  0.00    -0.357 OA
HETATM   21  H9          0      46.173  21.608 -11.075  1.00  0.00     0.218 HD
ENDBRANCH  17  20
BRANCH  18  22
HETATM   22  O11         0      49.549  21.582  -9.826  1.00  0.00    -0.357 OA
HETATM   23  H11         0      49.653  21.739 -10.757  1.00  0.00     0.218 HD
ENDBRANCH  18  22
ENDBRANCH   4  14
BRANCH   8  24
HETATM   24  O17         0      44.619  23.523  -3.483  1.00  0.00    -0.359 OA
HETATM   25  H17         0      44.044  23.892  -4.144  1.00  0.00     0.218 HD
ENDBRANCH   8  24
TORSDOF 5
ENDMDL
MODEL 3
REMARK VINA RESULT:      -5.0      3.518      5.373
REMARK  5 active torsions:
REMARK  status: ('A' for Active; 'I' for Inactive)
REMARK    1  A    between atoms: C4_4  and  C5_5 
REMARK    2  A    between atoms: C8_8  and  O9_9 
REMARK    3  A    between atoms: C10_11  and  O11_12 
REMARK    4  A    between atoms: C16_18  and  O17_19 
REMARK    5  A    between atoms: C19_22  and  O20_23 
ROOT
HETATM    1  O1          0      44.113  23.031  -0.757  1.00  0.00    -0.286 OA
HETATM    2  C2          0      44.273  22.381  -1.826  1.00  0.00     0.201 C 
HETATM    3  C3          0      45.136  21.303  -1.927  1.00  0.00     0.067 C 
HETATM    4  C4          0      45.371  20.669  -3.142  1.00  0.00     0.103 C 
HETATM    5  O13         0      44.735  21.101  -4.216  1.00  0.00    -0.307 OA
HETATM    6  C14         0      43.934  22.143  -4.183  1.00  0.00     0.107 C 
HETATM    7  C15         0      43.589  22.837  -5.334  1.00  0.00     0.049 C 
HETATM    8  C16         0      42.959  24.074  -5.270  1.00  0.00     0.093 C 
HETATM    9  C18         0      42.244  24.308  -4.102  1.00  0.00     0.048 C 
HETATM   10  C19         0      42.532  23.599  -2.944  1.00  0.00     0.096 C 
HETATM   11  C21         0      43.517  22.649  -2.957  1.00  0.00     0.084 C 
ENDROOT
BRANCH  10  12
HETATM   12  O20         0      42.143  24.119  -1.713  1.00  0.00    -0.359 OA
HETATM   13  H20         0      42.815  24.493  -1.155  1.00  0.00     0.218 HD
ENDBRANCH  10  12
BRANCH   4  14
HETATM   14  C5          0      46.662  19.998  -3.308  1.00  0.00     0.025 C 
HETATM   15  C6          0      46.774  18.657  -3.643  1.00  0.00     0.004 C 
HETATM   16  C7          0      47.792  18.294  -4.519  1.00  0.00     0.026 C 
HETATM   17  C8          0      48.750  19.209  -4.942  1.00  0.00     0.112 C 
HETATM   18  C10         0      48.931  20.294  -4.095  1.00  0.00     0.112 C 
HETATM   19  C12         0      47.867  20.688  -3.292  1.00  0.00     0.028 C 
BRANCH  17  20
HETATM   20  O9          0      49.301  19.123  -6.209  1.00  0.00    -0.357 OA
HETATM   21  H9          0      48.814  19.283  -7.009  1.00  0.00     0.218 HD
ENDBRANCH  17  20
BRANCH  18  22
HETATM   22  O11         0      50.000  21.135  -4.369  1.00  0.00    -0.357 OA
HETATM   23  H11         0      50.672  21.207  -3.702  1.00  0.00     0.218 HD
ENDBRANCH  18  22
ENDBRANCH   4  14
BRANCH   8  24
HETATM   24  O17         0      43.298  25.111  -6.146  1.00  0.00    -0.359 OA
HETATM   25  H17         0      43.932  24.989  -6.842  1.00  0.00     0.218 HD
ENDBRANCH   8  24
TORSDOF 5
ENDMDL
MODEL 4
REMARK VINA RESULT:      -5.0      4.856      5.890
REMARK  5 active torsions:
REMARK  status: ('A' for Active; 'I' for Inactive)
REMARK    1  A    between atoms: C4_4  and  C5_5 
REMARK    2  A    between atoms: C8_8  and  O9_9 
REMARK    3  A    between atoms: C10_11  and  O11_12 
REMARK    4  A    between atoms: C16_18  and  O17_19 
REMARK    5  A    between atoms: C19_22  and  O20_23 
ROOT
HETATM    1  O1          0      47.489  16.954   0.066  1.00  0.00    -0.286 OA
HETATM    2  C2          0      46.682  17.070  -0.896  1.00  0.00     0.201 C 
HETATM    3  C3          0      45.727  16.113  -1.193  1.00  0.00     0.067 C 
HETATM    4  C4          0      44.918  16.215  -2.320  1.00  0.00     0.103 C 
HETATM    5  O13         0      45.060  17.265  -3.109  1.00  0.00    -0.307 OA
HETATM    6  C14         0      45.977  18.183  -2.894  1.00  0.00     0.107 C 
HETATM    7  C15         0      46.398  19.045  -3.897  1.00  0.00     0.049 C 
HETATM    8  C16         0      47.533  19.832  -3.742  1.00  0.00     0.093 C 
HETATM    9  C18         0      47.880  20.109  -2.426  1.00  0.00     0.048 C 
HETATM   10  C19         0      47.438  19.294  -1.393  1.00  0.00     0.096 C 
HETATM   11  C21         0      46.639  18.219  -1.671  1.00  0.00     0.084 C 
ENDROOT
BRANCH  10  12
HETATM   12  O20         0      48.117  19.305  -0.179  1.00  0.00    -0.359 OA
HETATM   13  H20         0      48.859  18.720  -0.079  1.00  0.00     0.218 HD
ENDBRANCH  10  12
BRANCH   4  14
HETATM   14  C5          0      44.403  14.969  -2.890  1.00  0.00     0.025 C 
HETATM   15  C6          0      43.546  14.939  -3.980  1.00  0.00     0.004 C 
HETATM   16  C7          0      43.727  13.925  -4.915  1.00  0.00     0.026 C 
HETATM   17  C8          0      44.640  12.896  -4.708  1.00  0.00     0.112 C 
HETATM   18  C10         0      44.961  12.666  -3.376  1.00  0.00     0.112 C 
HETATM   19  C12         0      44.852  13.721  -2.478  1.00  0.00     0.028 C 
BRANCH  17  20
HETATM   20  O9          0      45.312  12.319  -5.771  1.00  0.00    -0.357 OA
HETATM   21  H9          0      45.238  11.402  -6.007  1.00  0.00     0.218 HD
ENDBRANCH  17  20
BRANCH  18  22
HETATM   22  O11         0      45.717  11.535  -3.099  1.00  0.00    -0.357 OA
HETATM   23  H11         0      46.168  11.129  -3.830  1.00  0.00     0.218 HD
ENDBRANCH  18  22
ENDBRANCH   4  14
BRANCH   8  24
HETATM   24  O17         0      48.429  20.035  -4.798  1.00  0.00    -0.359 OA
HETATM   25  H17         0      49.347  19.802  -4.726  1.00  0.00     0.218 HD
ENDBRANCH   8  24
TORSDOF 5
ENDMDL
MODEL 5
REMARK VINA RESULT:      -5.0      1.906      6.811
REMARK  5 active torsions:
REMARK  status: ('A' for Active; 'I' for Inactive)
REMARK    1  A    between atoms: C4_4  and  C5_5 
REMARK    2  A    between atoms: C8_8  and  O9_9 
REMARK    3  A    between atoms: C10_11  and  O11_12 
REMARK    4  A    between atoms: C16_18  and  O17_19 
REMARK    5  A    between atoms: C19_22  and  O20_23 
ROOT
HETATM    1  O1          0      45.027  18.095  -7.820  1.00  0.00    -0.286 OA
HETATM    2  C2          0      46.105  18.542  -7.340  1.00  0.00     0.201 C 
HETATM    3  C3          0      46.323  18.672  -5.979  1.00  0.00     0.067 C 
HETATM    4  C4          0      47.478  19.263  -5.479  1.00  0.00     0.103 C 
HETATM    5  O13         0      48.393  19.690  -6.332  1.00  0.00    -0.307 OA
HETATM    6  C14         0      48.219  19.625  -7.634  1.00  0.00     0.107 C 
HETATM    7  C15         0      48.957  20.408  -8.510  1.00  0.00     0.049 C 
HETATM    8  C16         0      48.600  20.527  -9.848  1.00  0.00     0.093 C 
HETATM    9  C18         0      47.859  19.465 -10.354  1.00  0.00     0.048 C 
HETATM   10  C19         0      47.146  18.633  -9.501  1.00  0.00     0.096 C 
HETATM   11  C21         0      47.187  18.849  -8.151  1.00  0.00     0.084 C 
ENDROOT
BRANCH  10  12
HETATM   12  O20         0      46.093  17.879 -10.010  1.00  0.00    -0.359 OA
HETATM   13  H20         0      45.903  17.949 -10.938  1.00  0.00     0.218 HD
ENDBRANCH  10  12
BRANCH   4  14
HETATM   14  C5          0      47.390  19.899  -4.164  1.00  0.00     0.025 C 
HETATM   15  C6          0      46.396  20.809  -3.834  1.00  0.00     0.004 C 
HETATM   16  C7          0      45.872  20.752  -2.546  1.00  0.00     0.026 C 
HETATM   17  C8          0      46.408  19.911  -1.577  1.00  0.00     0.112 C 
HETATM   18  C10         0      47.729  19.544  -1.795  1.00  0.00     0.112 C 
HETATM   19  C12         0      48.203  19.527  -3.101  1.00  0.00     0.028 C 
BRANCH  17  20
HETATM   20  O9          0      45.600  19.339  -0.610  1.00  0.00    -0.357 OA
HETATM   21  H9          0      44.898  19.801  -0.167  1.00  0.00     0.218 HD
ENDBRANCH  17  20
BRANCH  18  22
HETATM   22  O11         0      48.369  18.864  -0.768  1.00  0.00    -0.357 OA
HETATM   23  H11         0      47.896  18.777   0.051  1.00  0.00     0.218 HD
ENDBRANCH  18  22
ENDBRANCH   4  14
BRANCH   8  24
HETATM   24  O17         0      48.685  21.751 -10.520  1.00  0.00    -0.359 OA
HETATM   25  H17         0      48.900  22.556 -10.065  1.00  0.00     0.218 HD
ENDBRANCH   8  24
TORSDOF 5
ENDMDL
MODEL 6
REMARK VINA RESULT:      -4.8      3.031      4.363
REMARK  5 active torsions:
REMARK  status: ('A' for Active; 'I' for Inactive)
REMARK    1  A    between atoms: C4_4  and  C5_5 
REMARK    2  A    between atoms: C8_8  and  O9_9 
REMARK    3  A    between atoms: C10_11  and  O11_12 
REMARK    4  A    between atoms: C16_18  and  O17_19 
REMARK    5  A    between atoms: C19_22  and  O20_23 
ROOT
HETATM    1  O1          0      47.414  20.205  -7.115  1.00  0.00    -0.286 OA
HETATM    2  C2          0      46.914  19.302  -6.389  1.00  0.00     0.201 C 
HETATM    3  C3          0      45.818  18.550  -6.775  1.00  0.00     0.067 C 
HETATM    4  C4          0      45.223  17.633  -5.915  1.00  0.00     0.103 C 
HETATM    5  O13         0      45.737  17.470  -4.709  1.00  0.00    -0.307 OA
HETATM    6  C14         0      46.753  18.185  -4.278  1.00  0.00     0.107 C 
HETATM    7  C15         0      47.038  18.312  -2.926  1.00  0.00     0.049 C 
HETATM    8  C16         0      47.942  19.261  -2.465  1.00  0.00     0.093 C 
HETATM    9  C18         0      48.892  19.666  -3.395  1.00  0.00     0.048 C 
HETATM   10  C19         0      48.660  19.511  -4.755  1.00  0.00     0.096 C 
HETATM   11  C21         0      47.494  18.938  -5.183  1.00  0.00     0.084 C 
ENDROOT
BRANCH  10  12
HETATM   12  O20         0      49.377  20.287  -5.660  1.00  0.00    -0.359 OA
HETATM   13  H20         0      50.325  20.266  -5.611  1.00  0.00     0.218 HD
ENDBRANCH  10  12
BRANCH   4  14
HETATM   14  C5          0      43.803  17.345  -6.121  1.00  0.00     0.025 C 
HETATM   15  C6          0      42.876  18.325  -6.445  1.00  0.00     0.004 C 
HETATM   16  C7          0      41.876  17.992  -7.353  1.00  0.00     0.026 C 
HETATM   17  C8          0      41.720  16.692  -7.822  1.00  0.00     0.112 C 
HETATM   18  C10         0      42.248  15.710  -6.993  1.00  0.00     0.112 C 
HETATM   19  C12         0      43.304  16.049  -6.156  1.00  0.00     0.028 C 
BRANCH  17  20
HETATM   20  O9          0      41.266  16.451  -9.106  1.00  0.00    -0.357 OA
HETATM   21  H9          0      40.625  16.994  -9.550  1.00  0.00     0.218 HD
ENDBRANCH  17  20
BRANCH  18  22
HETATM   22  O11         0      41.956  14.392  -7.316  1.00  0.00    -0.357 OA
HETATM   23  H11         0      41.083  14.213  -7.646  1.00  0.00     0.218 HD
ENDBRANCH  18  22
ENDBRANCH   4  14
BRANCH   8  24
HETATM   24  O17         0      47.704  19.985  -1.292  1.00  0.00    -0.359 OA
HETATM   25  H17         0      48.413  20.261  -0.723  1.00  0.00     0.218 HD
ENDBRANCH   8  24
TORSDOF 5
ENDMDL
MODEL 7
REMARK VINA RESULT:      -4.7      2.295      3.440
REMARK  5 active torsions:
REMARK  status: ('A' for Active; 'I' for Inactive)
REMARK    1  A    between atoms: C4_4  and  C5_5 
REMARK    2  A    between atoms: C8_8  and  O9_9 
REMARK    3  A    between atoms: C10_11  and  O11_12 
REMARK    4  A    between atoms: C16_18  and  O17_19 
REMARK    5  A    between atoms: C19_22  and  O20_23 
ROOT
HETATM    1  O1          0      44.229  17.238  -4.650  1.00  0.00    -0.286 OA
HETATM    2  C2          0      45.030  18.179  -4.900  1.00  0.00     0.201 C 
HETATM    3  C3          0      45.514  18.435  -6.172  1.00  0.00     0.067 C 
HETATM    4  C4          0      46.474  19.413  -6.403  1.00  0.00     0.103 C 
HETATM    5  O13         0      46.915  20.124  -5.380  1.00  0.00    -0.307 OA
HETATM    6  C14         0      46.517  19.897  -4.148  1.00  0.00     0.107 C 
HETATM    7  C15         0      47.243  20.340  -3.052  1.00  0.00     0.049 C 
HETATM    8  C16         0      46.963  19.886  -1.769  1.00  0.00     0.093 C 
HETATM    9  C18         0      45.663  19.432  -1.578  1.00  0.00     0.048 C 
HETATM   10  C19         0      44.892  19.025  -2.658  1.00  0.00     0.096 C 
HETATM   11  C21         0      45.410  19.087  -3.923  1.00  0.00     0.084 C 
ENDROOT
BRANCH  10  12
HETATM   12  O20         0      43.802  18.189  -2.438  1.00  0.00    -0.359 OA
HETATM   13  H20         0      43.423  18.171  -1.568  1.00  0.00     0.218 HD
ENDBRANCH  10  12
BRANCH   4  14
HETATM   14  C5          0      47.347  19.234  -7.565  1.00  0.00     0.025 C 
HETATM   15  C6          0      46.956  18.535  -8.698  1.00  0.00     0.004 C 
HETATM   16  C7          0      47.366  19.028  -9.933  1.00  0.00     0.026 C 
HETATM   17  C8          0      48.246  20.101 -10.034  1.00  0.00     0.112 C 
HETATM   18  C10         0      49.045  20.303  -8.917  1.00  0.00     0.112 C 
HETATM   19  C12         0      48.573  19.876  -7.681  1.00  0.00     0.028 C 
BRANCH  17  20
HETATM   20  O9          0      48.154  20.996 -11.085  1.00  0.00    -0.357 OA
HETATM   21  H9          0      48.333  21.926 -11.003  1.00  0.00     0.218 HD
ENDBRANCH  17  20
BRANCH  18  22
HETATM   22  O11         0      50.067  21.234  -9.035  1.00  0.00    -0.357 OA
HETATM   23  H11         0      50.687  21.105  -9.743  1.00  0.00     0.218 HD
ENDBRANCH  18  22
ENDBRANCH   4  14
BRANCH   8  24
HETATM   24  O17         0      47.985  19.594  -0.859  1.00  0.00    -0.359 OA
HETATM   25  H17         0      48.872  19.410  -1.146  1.00  0.00     0.218 HD
ENDBRANCH   8  24
TORSDOF 5
ENDMDL
MODEL 8
REMARK VINA RESULT:      -4.7      2.670      6.524
REMARK  5 active torsions:
REMARK  status: ('A' for Active; 'I' for Inactive)
REMARK    1  A    between atoms: C4_4  and  C5_5 
REMARK    2  A    between atoms: C8_8  and  O9_9 
REMARK    3  A    between atoms: C10_11  and  O11_12 
REMARK    4  A    between atoms: C16_18  and  O17_19 
REMARK    5  A    between atoms: C19_22  and  O20_23 
ROOT
HETATM    1  O1          0      44.454  21.211  -7.352  1.00  0.00    -0.286 OA
HETATM    2  C2          0      45.506  20.537  -7.175  1.00  0.00     0.201 C 
HETATM    3  C3          0      45.809  19.920  -5.973  1.00  0.00     0.067 C 
HETATM    4  C4          0      47.022  19.271  -5.772  1.00  0.00     0.103 C 
HETATM    5  O13         0      47.892  19.230  -6.766  1.00  0.00    -0.307 OA
HETATM    6  C14         0      47.670  19.831  -7.915  1.00  0.00     0.107 C 
HETATM    7  C15         0      48.701  20.134  -8.792  1.00  0.00     0.049 C 
HETATM    8  C16         0      48.503  20.986  -9.872  1.00  0.00     0.093 C 
HETATM    9  C18         0      47.190  21.069 -10.320  1.00  0.00     0.048 C 
HETATM   10  C19         0      46.136  20.728  -9.484  1.00  0.00     0.096 C 
HETATM   11  C21         0      46.392  20.290  -8.213  1.00  0.00     0.084 C 
ENDROOT
BRANCH  10  12
HETATM   12  O20         0      44.862  21.213  -9.762  1.00  0.00    -0.359 OA
HETATM   13  H20         0      44.439  20.921 -10.561  1.00  0.00     0.218 HD
ENDBRANCH  10  12
BRANCH   4  14
HETATM   14  C5          0      47.518  19.189  -4.397  1.00  0.00     0.025 C 
HETATM   15  C6          0      47.854  20.309  -3.651  1.00  0.00     0.004 C 
HETATM   16  C7          0      47.534  20.300  -2.297  1.00  0.00     0.026 C 
HETATM   17  C8          0      47.022  19.167  -1.675  1.00  0.00     0.112 C 
HETATM   18  C10         0      47.316  17.971  -2.317  1.00  0.00     0.112 C 
HETATM   19  C12         0      47.548  17.996  -3.687  1.00  0.00     0.028 C 
BRANCH  17  20
HETATM   20  O9          0      46.121  19.277  -0.631  1.00  0.00    -0.357 OA
HETATM   21  H9          0      46.357  19.174   0.283  1.00  0.00     0.218 HD
ENDBRANCH  17  20
BRANCH  18  22
HETATM   22  O11         0      46.994  16.801  -1.644  1.00  0.00    -0.357 OA
HETATM   23  H11         0      47.479  16.614  -0.849  1.00  0.00     0.218 HD
ENDBRANCH  18  22
ENDBRANCH   4  14
BRANCH   8  24
HETATM   24  O17         0      49.469  21.926 -10.247  1.00  0.00    -0.359 OA
HETATM   25  H17         0      49.457  22.341 -11.101  1.00  0.00     0.218 HD
ENDBRANCH   8  24
TORSDOF 5
ENDMDL
MODEL 9
REMARK VINA RESULT:      -4.5      3.339      5.884
REMARK  5 active torsions:
REMARK  status: ('A' for Active; 'I' for Inactive)
REMARK    1  A    between atoms: C4_4  and  C5_5 
REMARK    2  A    between atoms: C8_8  and  O9_9 
REMARK    3  A    between atoms: C10_11  and  O11_12 
REMARK    4  A    between atoms: C16_18  and  O17_19 
REMARK    5  A    between atoms: C19_22  and  O20_23 
ROOT
HETATM    1  O1          0      43.096  23.533  -4.123  1.00  0.00    -0.286 OA
HETATM    2  C2          0      43.704  22.821  -3.277  1.00  0.00     0.201 C 
HETATM    3  C3          0      44.943  22.255  -3.524  1.00  0.00     0.067 C 
HETATM    4  C4          0      45.544  21.392  -2.615  1.00  0.00     0.103 C 
HETATM    5  O13         0      44.918  21.128  -1.481  1.00  0.00    -0.307 OA
HETATM    6  C14         0      43.724  21.609  -1.214  1.00  0.00     0.107 C 
HETATM    7  C15         0      42.906  21.039  -0.248  1.00  0.00     0.049 C 
HETATM    8  C16         0      41.564  21.383  -0.146  1.00  0.00     0.093 C 
HETATM    9  C18         0      41.239  22.637  -0.650  1.00  0.00     0.048 C 
HETATM   10  C19         0      42.060  23.256  -1.582  1.00  0.00     0.096 C 
HETATM   11  C21         0      43.207  22.636  -1.996  1.00  0.00     0.084 C 
ENDROOT
BRANCH  10  12
HETATM   12  O20         0      41.535  24.262  -2.388  1.00  0.00    -0.359 OA
HETATM   13  H20         0      41.370  24.061  -3.301  1.00  0.00     0.218 HD
ENDBRANCH  10  12
BRANCH   4  14
HETATM   14  C5          0      46.481  20.402  -3.150  1.00  0.00     0.025 C 
HETATM   15  C6          0      46.118  19.461  -4.102  1.00  0.00     0.004 C 
HETATM   16  C7          0      47.047  19.154  -5.091  1.00  0.00     0.026 C 
HETATM   17  C8          0      48.341  19.662  -5.060  1.00  0.00     0.112 C 
HETATM   18  C10         0      48.784  20.044  -3.800  1.00  0.00     0.112 C 
HETATM   19  C12         0      47.839  20.428  -2.857  1.00  0.00     0.028 C 
BRANCH  17  20
HETATM   20  O9          0      49.019  19.948  -6.232  1.00  0.00    -0.357 OA
HETATM   21  H9          0      49.725  20.581  -6.292  1.00  0.00     0.218 HD
ENDBRANCH  17  20
BRANCH  18  22
HETATM   22  O11         0      50.125  20.379  -3.681  1.00  0.00    -0.357 OA
HETATM   23  H11         0      50.393  20.797  -2.870  1.00  0.00     0.218 HD
ENDBRANCH  18  22
ENDBRANCH   4  14
BRANCH   8  24
HETATM   24  O17         0      40.583  20.422   0.125  1.00  0.00    -0.359 OA
HETATM   25  H17         0      40.751  19.686   0.702  1.00  0.00     0.218 HD
ENDBRANCH   8  24
TORSDOF 5
ENDMDL
