MODEL 1
REMARK VINA RESULT:      -0.0      0.000      0.000
REMARK  5 active torsions:
REMARK  status: ('A' for Active; 'I' for Inactive)
REMARK    1  A    between atoms: C4_4  and  C5_5 
REMARK    2  A    between atoms: C8_8  and  O9_9 
REMARK    3  A    between atoms: C10_11  and  O11_12 
REMARK    4  A    between atoms: C16_18  and  O17_19 
REMARK    5  A    between atoms: C19_22  and  O20_23 
ROOT
HETATM    1  O1          0      67.424  94.834  32.054  1.00  0.00    -0.286 OA
HETATM    2  C2          0      68.013  95.033  33.151  1.00  0.00     0.201 C 
HETATM    3  C3          0      69.314  95.500  33.230  1.00  0.00     0.067 C 
HETATM    4  C4          0      69.975  95.613  34.448  1.00  0.00     0.103 C 
HETATM    5  O13         0      69.331  95.283  35.553  1.00  0.00    -0.307 OA
HETATM    6  C14         0      68.108  94.798  35.531  1.00  0.00     0.107 C 
HETATM    7  C15         0      67.584  94.089  36.602  1.00  0.00     0.049 C 
HETATM    8  C16         0      66.403  93.367  36.481  1.00  0.00     0.093 C 
HETATM    9  C18         0      65.546  93.808  35.480  1.00  0.00     0.048 C 
HETATM   10  C19         0      66.029  94.559  34.417  1.00  0.00     0.096 C 
HETATM   11  C21         0      67.358  94.883  34.364  1.00  0.00     0.084 C 
ENDROOT
BRANCH  10  12
HETATM   12  O20         0      65.295  94.620  33.237  1.00  0.00    -0.359 OA
HETATM   13  H20         0      64.373  94.841  33.297  1.00  0.00     0.218 HD
ENDBRANCH  10  12
BRANCH   4  14
HETATM   14  C5          0      71.436  95.517  34.429  1.00  0.00     0.025 C 
HETATM   15  C6          0      72.175  95.078  35.517  1.00  0.00     0.004 C 
HETATM   16  C7          0      73.286  94.280  35.262  1.00  0.00     0.026 C 
HETATM   17  C8          0      73.727  94.036  33.966  1.00  0.00     0.112 C 
HETATM   18  C10         0      73.341  94.990  33.033  1.00  0.00     0.112 C 
HETATM   19  C12         0      72.180  95.715  33.272  1.00  0.00     0.028 C 
BRANCH  17  20
HETATM   20  O9          0      74.314  92.829  33.632  1.00  0.00    -0.357 OA
HETATM   21  H9          0      74.587  92.600  32.751  1.00  0.00     0.218 HD
ENDBRANCH  17  20
BRANCH  18  22
HETATM   22  O11         0      73.908  94.899  31.770  1.00  0.00    -0.357 OA
HETATM   23  H11         0      74.837  95.084  31.701  1.00  0.00     0.218 HD
ENDBRANCH  18  22
ENDBRANCH   4  14
BRANCH   8  24
HETATM   24  O17         0      66.251  92.111  37.079  1.00  0.00    -0.359 OA
HETATM   25  H17         0      66.767  91.362  36.804  1.00  0.00     0.218 HD
ENDBRANCH   8  24
TORSDOF 5
ENDMDL
MODEL 2
REMARK VINA RESULT:       0.0      7.266      9.170
REMARK  5 active torsions:
REMARK  status: ('A' for Active; 'I' for Inactive)
REMARK    1  A    between atoms: C4_4  and  C5_5 
REMARK    2  A    between atoms: C8_8  and  O9_9 
REMARK    3  A    between atoms: C10_11  and  O11_12 
REMARK    4  A    between atoms: C16_18  and  O17_19 
REMARK    5  A    between atoms: C19_22  and  O20_23 
ROOT
HETATM    1  O1          0      67.916  99.206  28.519  1.00  0.00    -0.286 OA
HETATM    2  C2          0      69.029  98.786  28.100  1.00  0.00     0.201 C 
HETATM    3  C3          0      69.394  98.830  26.765  1.00  0.00     0.067 C 
HETATM    4  C4          0      70.584  98.268  26.316  1.00  0.00     0.103 C 
HETATM    5  O13         0      71.388  97.697  27.196  1.00  0.00    -0.307 OA
HETATM    6  C14         0      71.072  97.595  28.468  1.00  0.00     0.107 C 
HETATM    7  C15         0      71.690  96.675  29.303  1.00  0.00     0.049 C 
HETATM    8  C16         0      71.185  96.394  30.566  1.00  0.00     0.093 C 
HETATM    9  C18         0      70.417  97.405  31.130  1.00  0.00     0.048 C 
HETATM   10  C19         0      69.822  98.370  30.328  1.00  0.00     0.096 C 
HETATM   11  C21         0      70.008  98.334  28.972  1.00  0.00     0.084 C 
ENDROOT
BRANCH  10  12
HETATM   12  O20         0      68.737  99.088  30.819  1.00  0.00    -0.359 OA
HETATM   13  H20         0      68.166  99.516  30.192  1.00  0.00     0.218 HD
ENDBRANCH  10  12
BRANCH   4  14
HETATM   14  C5          0      70.627  97.815  24.924  1.00  0.00     0.025 C 
HETATM   15  C6          0      71.466  96.800  24.489  1.00  0.00     0.004 C 
HETATM   16  C7          0      70.968  95.916  23.537  1.00  0.00     0.026 C 
HETATM   17  C8          0      69.729  96.113  22.936  1.00  0.00     0.112 C 
HETATM   18  C10         0      69.278  97.426  22.953  1.00  0.00     0.112 C 
HETATM   19  C12         0      69.726  98.265  23.967  1.00  0.00     0.028 C 
BRANCH  17  20
HETATM   20  O9          0      68.946  95.037  22.558  1.00  0.00    -0.357 OA
HETATM   21  H9          0      68.335  94.598  23.139  1.00  0.00     0.218 HD
ENDBRANCH  17  20
BRANCH  18  22
HETATM   22  O11         0      68.144  97.711  22.207  1.00  0.00    -0.357 OA
HETATM   23  H11         0      68.266  97.850  21.275  1.00  0.00     0.218 HD
ENDBRANCH  18  22
ENDBRANCH   4  14
BRANCH   8  24
HETATM   24  O17         0      71.167  95.088  31.071  1.00  0.00    -0.359 OA
HETATM   25  H17         0      71.322  94.336  30.513  1.00  0.00     0.218 HD
ENDBRANCH   8  24
TORSDOF 5
ENDMDL
MODEL 3
REMARK VINA RESULT:       0.0      4.794      5.925
REMARK  5 active torsions:
REMARK  status: ('A' for Active; 'I' for Inactive)
REMARK    1  A    between atoms: C4_4  and  C5_5 
REMARK    2  A    between atoms: C8_8  and  O9_9 
REMARK    3  A    between atoms: C10_11  and  O11_12 
REMARK    4  A    between atoms: C16_18  and  O17_19 
REMARK    5  A    between atoms: C19_22  and  O20_23 
ROOT
HETATM    1  O1          0      64.913  91.335  35.581  1.00  0.00    -0.286 OA
HETATM    2  C2          0      64.922  92.565  35.860  1.00  0.00     0.201 C 
HETATM    3  C3          0      64.577  93.545  34.944  1.00  0.00     0.067 C 
HETATM    4  C4          0      64.694  94.897  35.245  1.00  0.00     0.103 C 
HETATM    5  O13         0      65.128  95.246  36.443  1.00  0.00    -0.307 OA
HETATM    6  C14         0      65.504  94.357  37.336  1.00  0.00     0.107 C 
HETATM    7  C15         0      66.316  94.697  38.409  1.00  0.00     0.049 C 
HETATM    8  C16         0      66.916  93.723  39.197  1.00  0.00     0.093 C 
HETATM    9  C18         0      66.268  92.493  39.206  1.00  0.00     0.048 C 
HETATM   10  C19         0      65.412  92.140  38.171  1.00  0.00     0.096 C 
HETATM   11  C21         0      65.192  93.016  37.143  1.00  0.00     0.084 C 
ENDROOT
BRANCH  10  12
HETATM   12  O20         0      65.123  90.796  37.957  1.00  0.00    -0.359 OA
HETATM   13  H20         0      65.637  90.328  37.310  1.00  0.00     0.218 HD
ENDBRANCH  10  12
BRANCH   4  14
HETATM   14  C5          0      64.903  95.816  34.124  1.00  0.00     0.025 C 
HETATM   15  C6          0      65.554  97.034  34.262  1.00  0.00     0.004 C 
HETATM   16  C7          0      66.393  97.437  33.229  1.00  0.00     0.026 C 
HETATM   17  C8          0      66.482  96.722  32.040  1.00  0.00     0.112 C 
HETATM   18  C10         0      65.375  95.933  31.754  1.00  0.00     0.112 C 
HETATM   19  C12         0      64.601  95.473  32.813  1.00  0.00     0.028 C 
BRANCH  17  20
HETATM   20  O9          0      67.671  96.659  31.336  1.00  0.00    -0.357 OA
HETATM   21  H9          0      68.387  97.273  31.455  1.00  0.00     0.218 HD
ENDBRANCH  17  20
BRANCH  18  22
HETATM   22  O11         0      65.328  95.348  30.497  1.00  0.00    -0.357 OA
HETATM   23  H11         0      65.363  95.933  29.749  1.00  0.00     0.218 HD
ENDBRANCH  18  22
ENDBRANCH   4  14
BRANCH   8  24
HETATM   24  O17         0      68.229  93.865  39.660  1.00  0.00    -0.359 OA
HETATM   25  H17         0      68.612  94.720  39.817  1.00  0.00     0.218 HD
ENDBRANCH   8  24
TORSDOF 5
ENDMDL
MODEL 4
REMARK VINA RESULT:       0.0      3.636      6.776
REMARK  5 active torsions:
REMARK  status: ('A' for Active; 'I' for Inactive)
REMARK    1  A    between atoms: C4_4  and  C5_5 
REMARK    2  A    between atoms: C8_8  and  O9_9 
REMARK    3  A    between atoms: C10_11  and  O11_12 
REMARK    4  A    between atoms: C16_18  and  O17_19 
REMARK    5  A    between atoms: C19_22  and  O20_23 
ROOT
HETATM    1  O1          0      67.888  91.408  30.663  1.00  0.00    -0.286 OA
HETATM    2  C2          0      68.147  92.643  30.668  1.00  0.00     0.201 C 
HETATM    3  C3          0      68.376  93.357  31.832  1.00  0.00     0.067 C 
HETATM    4  C4          0      68.558  94.735  31.817  1.00  0.00     0.103 C 
HETATM    5  O13         0      68.530  95.367  30.657  1.00  0.00    -0.307 OA
HETATM    6  C14         0      68.279  94.742  29.527  1.00  0.00     0.107 C 
HETATM    7  C15         0      67.857  95.423  28.394  1.00  0.00     0.049 C 
HETATM    8  C16         0      67.353  94.744  27.291  1.00  0.00     0.093 C 
HETATM    9  C18         0      67.779  93.427  27.167  1.00  0.00     0.048 C 
HETATM   10  C19         0      68.251  92.732  28.271  1.00  0.00     0.096 C 
HETATM   11  C21         0      68.314  93.353  29.489  1.00  0.00     0.084 C 
ENDROOT
BRANCH  10  12
HETATM   12  O20         0      68.257  91.340  28.248  1.00  0.00    -0.359 OA
HETATM   13  H20         0      67.538  90.900  27.811  1.00  0.00     0.218 HD
ENDBRANCH  10  12
BRANCH   4  14
HETATM   14  C5          0      68.195  95.472  33.029  1.00  0.00     0.025 C 
HETATM   15  C6          0      67.805  96.804  33.012  1.00  0.00     0.004 C 
HETATM   16  C7          0      66.788  97.189  33.878  1.00  0.00     0.026 C 
HETATM   17  C8          0      66.265  96.314  34.825  1.00  0.00     0.112 C 
HETATM   18  C10         0      67.114  95.276  35.185  1.00  0.00     0.112 C 
HETATM   19  C12         0      68.067  94.853  34.266  1.00  0.00     0.028 C 
BRANCH  17  20
HETATM   20  O9          0      64.933  96.381  35.194  1.00  0.00    -0.357 OA
HETATM   21  H9          0      64.391  95.618  35.355  1.00  0.00     0.218 HD
ENDBRANCH  17  20
BRANCH  18  22
HETATM   22  O11         0      66.722  94.487  36.257  1.00  0.00    -0.357 OA
HETATM   23  H11         0      66.700  93.548  36.115  1.00  0.00     0.218 HD
ENDBRANCH  18  22
ENDBRANCH   4  14
BRANCH   8  24
HETATM   24  O17         0      66.257  95.234  26.572  1.00  0.00    -0.359 OA
HETATM   25  H17         0      65.438  95.454  26.999  1.00  0.00     0.218 HD
ENDBRANCH   8  24
TORSDOF 5
ENDMDL
MODEL 5
REMARK VINA RESULT:       0.0      7.114      9.800
REMARK  5 active torsions:
REMARK  status: ('A' for Active; 'I' for Inactive)
REMARK    1  A    between atoms: C4_4  and  C5_5 
REMARK    2  A    between atoms: C8_8  and  O9_9 
REMARK    3  A    between atoms: C10_11  and  O11_12 
REMARK    4  A    between atoms: C16_18  and  O17_19 
REMARK    5  A    between atoms: C19_22  and  O20_23 
ROOT
HETATM    1  O1          0      73.992  90.194  34.410  1.00  0.00    -0.286 OA
HETATM    2  C2          0      73.392  89.476  33.564  1.00  0.00     0.201 C 
HETATM    3  C3          0      72.743  88.301  33.903  1.00  0.00     0.067 C 
HETATM    4  C4          0      72.178  87.476  32.937  1.00  0.00     0.103 C 
HETATM    5  O13         0      72.250  87.841  31.669  1.00  0.00    -0.307 OA
HETATM    6  C14         0      72.886  88.928  31.290  1.00  0.00     0.107 C 
HETATM    7  C15         0      73.308  89.108  29.981  1.00  0.00     0.049 C 
HETATM    8  C16         0      74.193  90.124  29.641  1.00  0.00     0.093 C 
HETATM    9  C18         0      74.198  91.212  30.507  1.00  0.00     0.048 C 
HETATM   10  C19         0      73.739  91.078  31.810  1.00  0.00     0.096 C 
HETATM   11  C21         0      73.262  89.870  32.241  1.00  0.00     0.084 C 
ENDROOT
BRANCH  10  12
HETATM   12  O20         0      74.140  92.002  32.770  1.00  0.00    -0.359 OA
HETATM   13  H20         0      73.985  92.922  32.595  1.00  0.00     0.218 HD
ENDBRANCH  10  12
BRANCH   4  14
HETATM   14  C5          0      72.068  86.051  33.255  1.00  0.00     0.025 C 
HETATM   15  C6          0      72.052  85.063  32.281  1.00  0.00     0.004 C 
HETATM   16  C7          0      72.724  83.876  32.556  1.00  0.00     0.026 C 
HETATM   17  C8          0      73.280  83.625  33.806  1.00  0.00     0.112 C 
HETATM   18  C10         0      72.714  84.348  34.847  1.00  0.00     0.112 C 
HETATM   19  C12         0      72.123  85.572  34.557  1.00  0.00     0.028 C 
BRANCH  17  20
HETATM   20  O9          0      74.437  82.876  33.930  1.00  0.00    -0.357 OA
HETATM   21  H9          0      74.723  82.479  34.744  1.00  0.00     0.218 HD
ENDBRANCH  17  20
BRANCH  18  22
HETATM   22  O11         0      73.098  84.001  36.135  1.00  0.00    -0.357 OA
HETATM   23  H11         0      73.498  83.146  36.249  1.00  0.00     0.218 HD
ENDBRANCH  18  22
ENDBRANCH   4  14
BRANCH   8  24
HETATM   24  O17         0      75.220  89.918  28.713  1.00  0.00    -0.359 OA
HETATM   25  H17         0      75.038  89.681  27.812  1.00  0.00     0.218 HD
ENDBRANCH   8  24
TORSDOF 5
ENDMDL
MODEL 6
REMARK VINA RESULT:       0.0      4.367      8.165
REMARK  5 active torsions:
REMARK  status: ('A' for Active; 'I' for Inactive)
REMARK    1  A    between atoms: C4_4  and  C5_5 
REMARK    2  A    between atoms: C8_8  and  O9_9 
REMARK    3  A    between atoms: C10_11  and  O11_12 
REMARK    4  A    between atoms: C16_18  and  O17_19 
REMARK    5  A    between atoms: C19_22  and  O20_23 
ROOT
HETATM    1  O1          0      75.090  89.806  30.491  1.00  0.00    -0.286 OA
HETATM    2  C2          0      74.525  89.801  31.619  1.00  0.00     0.201 C 
HETATM    3  C3          0      73.243  90.286  31.818  1.00  0.00     0.067 C 
HETATM    4  C4          0      72.683  90.364  33.088  1.00  0.00     0.103 C 
HETATM    5  O13         0      73.391  89.944  34.121  1.00  0.00    -0.307 OA
HETATM    6  C14         0      74.626  89.510  33.992  1.00  0.00     0.107 C 
HETATM    7  C15         0      75.496  89.450  35.071  1.00  0.00     0.049 C 
HETATM    8  C16         0      76.858  89.238  34.889  1.00  0.00     0.093 C 
HETATM    9  C18         0      77.197  88.581  33.712  1.00  0.00     0.048 C 
HETATM   10  C19         0      76.329  88.581  32.629  1.00  0.00     0.096 C 
HETATM   11  C21         0      75.122  89.218  32.726  1.00  0.00     0.084 C 
ENDROOT
BRANCH  10  12
HETATM   12  O20         0      76.829  88.321  31.357  1.00  0.00    -0.359 OA
HETATM   13  H20         0      77.635  87.824  31.288  1.00  0.00     0.218 HD
ENDBRANCH  10  12
BRANCH   4  14
HETATM   14  C5          0      71.657  91.385  33.306  1.00  0.00     0.025 C 
HETATM   15  C6          0      71.405  91.945  34.550  1.00  0.00     0.004 C 
HETATM   16  C7          0      71.106  93.303  34.597  1.00  0.00     0.026 C 
HETATM   17  C8          0      70.930  94.051  33.438  1.00  0.00     0.112 C 
HETATM   18  C10         0      70.576  93.311  32.318  1.00  0.00     0.112 C 
HETATM   19  C12         0      70.962  91.977  32.259  1.00  0.00     0.028 C 
BRANCH  17  20
HETATM   20  O9          0      71.293  95.386  33.394  1.00  0.00    -0.357 OA
HETATM   21  H9          0      71.939  95.776  33.972  1.00  0.00     0.218 HD
ENDBRANCH  17  20
BRANCH  18  22
HETATM   22  O11         0      70.206  94.023  31.186  1.00  0.00    -0.357 OA
HETATM   23  H11         0      69.925  94.922  31.316  1.00  0.00     0.218 HD
ENDBRANCH  18  22
ENDBRANCH   4  14
BRANCH   8  24
HETATM   24  O17         0      77.811  89.923  35.651  1.00  0.00    -0.359 OA
HETATM   25  H17         0      77.665  90.127  36.567  1.00  0.00     0.218 HD
ENDBRANCH   8  24
TORSDOF 5
ENDMDL
MODEL 7
REMARK VINA RESULT:       0.0      6.888      9.743
REMARK  5 active torsions:
REMARK  status: ('A' for Active; 'I' for Inactive)
REMARK    1  A    between atoms: C4_4  and  C5_5 
REMARK    2  A    between atoms: C8_8  and  O9_9 
REMARK    3  A    between atoms: C10_11  and  O11_12 
REMARK    4  A    between atoms: C16_18  and  O17_19 
REMARK    5  A    between atoms: C19_22  and  O20_23 
ROOT
HETATM    1  O1          0      60.446  89.341  34.604  1.00  0.00    -0.286 OA
HETATM    2  C2          0      61.417  89.739  33.904  1.00  0.00     0.201 C 
HETATM    3  C3          0      61.504  89.509  32.542  1.00  0.00     0.067 C 
HETATM    4  C4          0      62.632  89.868  31.813  1.00  0.00     0.103 C 
HETATM    5  O13         0      63.632  90.461  32.441  1.00  0.00    -0.307 OA
HETATM    6  C14         0      63.616  90.669  33.740  1.00  0.00     0.107 C 
HETATM    7  C15         0      64.780  90.910  34.455  1.00  0.00     0.049 C 
HETATM    8  C16         0      64.793  90.874  35.844  1.00  0.00     0.093 C 
HETATM    9  C18         0      63.567  91.121  36.450  1.00  0.00     0.048 C 
HETATM   10  C19         0      62.384  90.936  35.747  1.00  0.00     0.096 C 
HETATM   11  C21         0      62.426  90.523  34.444  1.00  0.00     0.084 C 
ENDROOT
BRANCH  10  12
HETATM   12  O20         0      61.196  90.757  36.450  1.00  0.00    -0.359 OA
HETATM   13  H20         0      60.386  91.021  36.030  1.00  0.00     0.218 HD
ENDBRANCH  10  12
BRANCH   4  14
HETATM   14  C5          0      62.918  89.099  30.600  1.00  0.00     0.025 C 
HETATM   15  C6          0      64.200  88.951  30.089  1.00  0.00     0.004 C 
HETATM   16  C7          0      64.539  87.715  29.548  1.00  0.00     0.026 C 
HETATM   17  C8          0      63.598  86.702  29.396  1.00  0.00     0.112 C 
HETATM   18  C10         0      62.281  87.139  29.333  1.00  0.00     0.112 C 
HETATM   19  C12         0      61.952  88.337  29.956  1.00  0.00     0.028 C 
BRANCH  17  20
HETATM   20  O9          0      63.962  85.373  29.517  1.00  0.00    -0.357 OA
HETATM   21  H9          0      63.776  84.843  30.284  1.00  0.00     0.218 HD
ENDBRANCH  17  20
BRANCH  18  22
HETATM   22  O11         0      61.322  86.195  28.995  1.00  0.00    -0.357 OA
HETATM   23  H11         0      61.522  85.288  29.193  1.00  0.00     0.218 HD
ENDBRANCH  18  22
ENDBRANCH   4  14
BRANCH   8  24
HETATM   24  O17         0      65.861  90.307  36.549  1.00  0.00    -0.359 OA
HETATM   25  H17         0      66.729  90.239  36.171  1.00  0.00     0.218 HD
ENDBRANCH   8  24
TORSDOF 5
ENDMDL
MODEL 8
REMARK VINA RESULT:       0.0      7.200      8.119
REMARK  5 active torsions:
REMARK  status: ('A' for Active; 'I' for Inactive)
REMARK    1  A    between atoms: C4_4  and  C5_5 
REMARK    2  A    between atoms: C8_8  and  O9_9 
REMARK    3  A    between atoms: C10_11  and  O11_12 
REMARK    4  A    between atoms: C16_18  and  O17_19 
REMARK    5  A    between atoms: C19_22  and  O20_23 
ROOT
HETATM    1  O1          0      71.884  88.131  26.405  1.00  0.00    -0.286 OA
HETATM    2  C2          0      71.340  88.719  27.380  1.00  0.00     0.201 C 
HETATM    3  C3          0      71.983  89.696  28.120  1.00  0.00     0.067 C 
HETATM    4  C4          0      71.399  90.255  29.252  1.00  0.00     0.103 C 
HETATM    5  O13         0      70.193  89.851  29.610  1.00  0.00    -0.307 OA
HETATM    6  C14         0      69.555  88.899  28.964  1.00  0.00     0.107 C 
HETATM    7  C15         0      68.504  88.202  29.542  1.00  0.00     0.049 C 
HETATM    8  C16         0      68.005  87.040  28.965  1.00  0.00     0.093 C 
HETATM    9  C18         0      68.217  86.927  27.596  1.00  0.00     0.048 C 
HETATM   10  C19         0      69.230  87.647  26.977  1.00  0.00     0.096 C 
HETATM   11  C21         0      70.015  88.488  27.718  1.00  0.00     0.084 C 
ENDROOT
BRANCH  10  12
HETATM   12  O20         0      69.714  87.219  25.745  1.00  0.00    -0.359 OA
HETATM   13  H20         0      69.099  86.828  25.136  1.00  0.00     0.218 HD
ENDBRANCH  10  12
BRANCH   4  14
HETATM   14  C5          0      72.300  90.781  30.280  1.00  0.00     0.025 C 
HETATM   15  C6          0      71.949  90.858  31.619  1.00  0.00     0.004 C 
HETATM   16  C7          0      72.932  90.573  32.561  1.00  0.00     0.026 C 
HETATM   17  C8          0      74.254  90.350  32.191  1.00  0.00     0.112 C 
HETATM   18  C10         0      74.615  90.905  30.971  1.00  0.00     0.112 C 
HETATM   19  C12         0      73.626  91.100  30.015  1.00  0.00     0.028 C 
BRANCH  17  20
HETATM   20  O9          0      75.049  89.467  32.900  1.00  0.00    -0.357 OA
HETATM   21  H9          0      75.997  89.523  32.937  1.00  0.00     0.218 HD
ENDBRANCH  17  20
BRANCH  18  22
HETATM   22  O11         0      75.963  90.876  30.642  1.00  0.00    -0.357 OA
HETATM   23  H11         0      76.189  91.048  29.735  1.00  0.00     0.218 HD
ENDBRANCH  18  22
ENDBRANCH   4  14
BRANCH   8  24
HETATM   24  O17         0      67.631  85.940  29.745  1.00  0.00    -0.359 OA
HETATM   25  H17         0      68.196  85.599  30.428  1.00  0.00     0.218 HD
ENDBRANCH   8  24
TORSDOF 5
ENDMDL
MODEL 9
REMARK VINA RESULT:       0.0     10.055     12.263
REMARK  5 active torsions:
REMARK  status: ('A' for Active; 'I' for Inactive)
REMARK    1  A    between atoms: C4_4  and  C5_5 
REMARK    2  A    between atoms: C8_8  and  O9_9 
REMARK    3  A    between atoms: C10_11  and  O11_12 
REMARK    4  A    between atoms: C16_18  and  O17_19 
REMARK    5  A    between atoms: C19_22  and  O20_23 
ROOT
HETATM    1  O1          0      69.515  91.967  21.816  1.00  0.00    -0.286 OA
HETATM    2  C2          0      69.634  90.985  22.599  1.00  0.00     0.201 C 
HETATM    3  C3          0      68.811  90.795  23.696  1.00  0.00     0.067 C 
HETATM    4  C4          0      69.028  89.761  24.600  1.00  0.00     0.103 C 
HETATM    5  O13         0      70.036  88.933  24.387  1.00  0.00    -0.307 OA
HETATM    6  C14         0      70.870  89.091  23.383  1.00  0.00     0.107 C 
HETATM    7  C15         0      72.125  88.499  23.375  1.00  0.00     0.049 C 
HETATM    8  C16         0      73.091  88.868  22.447  1.00  0.00     0.093 C 
HETATM    9  C18         0      72.595  89.412  21.268  1.00  0.00     0.048 C 
HETATM   10  C19         0      71.325  89.971  21.229  1.00  0.00     0.096 C 
HETATM   11  C21         0      70.548  89.971  22.355  1.00  0.00     0.084 C 
ENDROOT
BRANCH  10  12
HETATM   12  O20         0      71.011  90.876  20.220  1.00  0.00    -0.359 OA
HETATM   13  H20         0      71.190  91.796  20.375  1.00  0.00     0.218 HD
ENDBRANCH  10  12
BRANCH   4  14
HETATM   14  C5          0      68.558  89.961  25.972  1.00  0.00     0.025 C 
HETATM   15  C6          0      69.136  89.331  27.064  1.00  0.00     0.004 C 
HETATM   16  C7          0      69.258  90.064  28.241  1.00  0.00     0.026 C 
HETATM   17  C8          0      68.704  91.333  28.371  1.00  0.00     0.112 C 
HETATM   18  C10         0      67.649  91.596  27.507  1.00  0.00     0.112 C 
HETATM   19  C12         0      67.598  90.911  26.299  1.00  0.00     0.028 C 
BRANCH  17  20
HETATM   20  O9          0      69.315  92.296  29.153  1.00  0.00    -0.357 OA
HETATM   21  H9          0      69.585  92.152  30.053  1.00  0.00     0.218 HD
ENDBRANCH  17  20
BRANCH  18  22
HETATM   22  O11         0      66.940  92.769  27.720  1.00  0.00    -0.357 OA
HETATM   23  H11         0      65.995  92.723  27.632  1.00  0.00     0.218 HD
ENDBRANCH  18  22
ENDBRANCH   4  14
BRANCH   8  24
HETATM   24  O17         0      74.437  88.996  22.807  1.00  0.00    -0.359 OA
HETATM   25  H17         0      75.043  88.267  22.742  1.00  0.00     0.218 HD
ENDBRANCH   8  24
TORSDOF 5
ENDMDL
