MODEL 1
REMARK VINA RESULT:      -6.2      0.000      0.000
REMARK  5 active torsions:
REMARK  status: ('A' for Active; 'I' for Inactive)
REMARK    1  A    between atoms: C4_4  and  C5_5 
REMARK    2  A    between atoms: C8_8  and  O9_9 
REMARK    3  A    between atoms: C10_11  and  O11_12 
REMARK    4  A    between atoms: C16_18  and  O17_19 
REMARK    5  A    between atoms: C19_22  and  O20_23 
ROOT
HETATM    1  O1          0      68.197  17.538  13.395  1.00  0.00    -0.286 OA
HETATM    2  C2          0      69.133  16.847  13.883  1.00  0.00     0.201 C 
HETATM    3  C3          0      69.177  15.467  13.783  1.00  0.00     0.067 C 
HETATM    4  C4          0      70.165  14.722  14.417  1.00  0.00     0.103 C 
HETATM    5  O13         0      71.091  15.358  15.113  1.00  0.00    -0.307 OA
HETATM    6  C14         0      71.074  16.663  15.271  1.00  0.00     0.107 C 
HETATM    7  C15         0      71.774  17.285  16.294  1.00  0.00     0.049 C 
HETATM    8  C16         0      71.553  18.620  16.612  1.00  0.00     0.093 C 
HETATM    9  C18         0      71.045  19.394  15.576  1.00  0.00     0.048 C 
HETATM   10  C19         0      70.379  18.799  14.513  1.00  0.00     0.096 C 
HETATM   11  C21         0      70.237  17.439  14.475  1.00  0.00     0.084 C 
ENDROOT
BRANCH  10  12
HETATM   12  O20         0      69.517  19.567  13.735  1.00  0.00    -0.359 OA
HETATM   13  H20         0      68.816  20.031  14.175  1.00  0.00     0.218 HD
ENDBRANCH  10  12
BRANCH   4  14
HETATM   14  C5          0      69.835  13.342  14.779  1.00  0.00     0.025 C 
HETATM   15  C6          0      69.106  13.016  15.913  1.00  0.00     0.004 C 
HETATM   16  C7          0      68.190  11.974  15.813  1.00  0.00     0.026 C 
HETATM   17  C8          0      68.095  11.194  14.666  1.00  0.00     0.112 C 
HETATM   18  C10         0      69.240  11.176  13.881  1.00  0.00     0.112 C 
HETATM   19  C12         0      70.096  12.269  13.937  1.00  0.00     0.028 C 
BRANCH  17  20
HETATM   20  O9          0      66.880  10.669  14.264  1.00  0.00    -0.357 OA
HETATM   21  H9          0      66.530   9.844  14.581  1.00  0.00     0.218 HD
ENDBRANCH  17  20
BRANCH  18  22
HETATM   22  O11         0      69.268  10.270  12.830  1.00  0.00    -0.357 OA
HETATM   23  H11         0      68.488   9.743  12.696  1.00  0.00     0.218 HD
ENDBRANCH  18  22
ENDBRANCH   4  14
BRANCH   8  24
HETATM   24  O17         0      71.522  19.057  17.941  1.00  0.00    -0.359 OA
HETATM   25  H17         0      72.197  19.624  18.296  1.00  0.00     0.218 HD
ENDBRANCH   8  24
TORSDOF 5
ENDMDL
MODEL 2
REMARK VINA RESULT:      -6.1      2.414      6.780
REMARK  5 active torsions:
REMARK  status: ('A' for Active; 'I' for Inactive)
REMARK    1  A    between atoms: C4_4  and  C5_5 
REMARK    2  A    between atoms: C8_8  and  O9_9 
REMARK    3  A    between atoms: C10_11  and  O11_12 
REMARK    4  A    between atoms: C16_18  and  O17_19 
REMARK    5  A    between atoms: C19_22  and  O20_23 
ROOT
HETATM    1  O1          0      66.202  13.348  13.620  1.00  0.00    -0.286 OA
HETATM    2  C2          0      67.422  13.585  13.836  1.00  0.00     0.201 C 
HETATM    3  C3          0      67.932  14.869  13.929  1.00  0.00     0.067 C 
HETATM    4  C4          0      69.295  15.103  14.065  1.00  0.00     0.103 C 
HETATM    5  O13         0      70.114  14.068  14.126  1.00  0.00    -0.307 OA
HETATM    6  C14         0      69.687  12.831  14.004  1.00  0.00     0.107 C 
HETATM    7  C15         0      70.542  11.791  13.668  1.00  0.00     0.049 C 
HETATM    8  C16         0      70.053  10.546  13.294  1.00  0.00     0.093 C 
HETATM    9  C18         0      68.784  10.246  13.774  1.00  0.00     0.048 C 
HETATM   10  C19         0      67.919  11.259  14.163  1.00  0.00     0.096 C 
HETATM   11  C21         0      68.325  12.564  14.090  1.00  0.00     0.084 C 
ENDROOT
BRANCH  10  12
HETATM   12  O20         0      66.552  11.004  14.218  1.00  0.00    -0.359 OA
HETATM   13  H20         0      66.102  11.162  15.040  1.00  0.00     0.218 HD
ENDBRANCH  10  12
BRANCH   4  14
HETATM   14  C5          0      69.809  16.380  13.564  1.00  0.00     0.025 C 
HETATM   15  C6          0      71.104  16.537  13.094  1.00  0.00     0.004 C 
HETATM   16  C7          0      71.294  17.362  11.990  1.00  0.00     0.026 C 
HETATM   17  C8          0      70.254  18.113  11.454  1.00  0.00     0.112 C 
HETATM   18  C10         0      69.215  18.378  12.336  1.00  0.00     0.112 C 
HETATM   19  C12         0      68.994  17.490  13.382  1.00  0.00     0.028 C 
BRANCH  17  20
HETATM   20  O9          0      70.193  18.372  10.096  1.00  0.00    -0.357 OA
HETATM   21  H9          0      70.858  18.096   9.476  1.00  0.00     0.218 HD
ENDBRANCH  17  20
BRANCH  18  22
HETATM   22  O11         0      68.245  19.277  11.914  1.00  0.00    -0.357 OA
HETATM   23  H11         0      67.340  18.998  11.987  1.00  0.00     0.218 HD
ENDBRANCH  18  22
ENDBRANCH   4  14
BRANCH   8  24
HETATM   24  O17         0      70.639   9.814  12.255  1.00  0.00    -0.359 OA
HETATM   25  H17         0      70.659   8.865  12.263  1.00  0.00     0.218 HD
ENDBRANCH   8  24
TORSDOF 5
ENDMDL
MODEL 3
REMARK VINA RESULT:      -6.0      2.213      7.692
REMARK  5 active torsions:
REMARK  status: ('A' for Active; 'I' for Inactive)
REMARK    1  A    between atoms: C4_4  and  C5_5 
REMARK    2  A    between atoms: C8_8  and  O9_9 
REMARK    3  A    between atoms: C10_11  and  O11_12 
REMARK    4  A    between atoms: C16_18  and  O17_19 
REMARK    5  A    between atoms: C19_22  and  O20_23 
ROOT
HETATM    1  O1          0      66.156   9.554  14.764  1.00  0.00    -0.286 OA
HETATM    2  C2          0      67.293  10.055  14.547  1.00  0.00     0.201 C 
HETATM    3  C3          0      67.758  11.179  15.210  1.00  0.00     0.067 C 
HETATM    4  C4          0      68.971  11.770  14.879  1.00  0.00     0.103 C 
HETATM    5  O13         0      69.701  11.228  13.920  1.00  0.00    -0.307 OA
HETATM    6  C14         0      69.290  10.185  13.234  1.00  0.00     0.107 C 
HETATM    7  C15         0      69.834   9.861  11.999  1.00  0.00     0.049 C 
HETATM    8  C16         0      69.233   8.923  11.169  1.00  0.00     0.093 C 
HETATM    9  C18         0      68.435   7.989  11.819  1.00  0.00     0.048 C 
HETATM   10  C19         0      67.913   8.261  13.076  1.00  0.00     0.096 C 
HETATM   11  C21         0      68.199   9.452  13.687  1.00  0.00     0.084 C 
ENDROOT
BRANCH  10  12
HETATM   12  O20         0      66.801   7.551  13.519  1.00  0.00    -0.359 OA
HETATM   13  H20         0      66.200   7.214  12.867  1.00  0.00     0.218 HD
ENDBRANCH  10  12
BRANCH   4  14
HETATM   14  C5          0      69.114  13.202  15.149  1.00  0.00     0.025 C 
HETATM   15  C6          0      69.538  13.698  16.373  1.00  0.00     0.004 C 
HETATM   16  C7          0      70.380  14.805  16.364  1.00  0.00     0.026 C 
HETATM   17  C8          0      70.683  15.481  15.187  1.00  0.00     0.112 C 
HETATM   18  C10         0      69.751  15.322  14.170  1.00  0.00     0.112 C 
HETATM   19  C12         0      68.981  14.164  14.156  1.00  0.00     0.028 C 
BRANCH  17  20
HETATM   20  O9          0      71.919  16.076  15.009  1.00  0.00    -0.357 OA
HETATM   21  H9          0      72.670  15.910  15.568  1.00  0.00     0.218 HD
ENDBRANCH  17  20
BRANCH  18  22
HETATM   22  O11         0      69.904  16.120  13.046  1.00  0.00    -0.357 OA
HETATM   23  H11         0      69.487  16.974  13.064  1.00  0.00     0.218 HD
ENDBRANCH  18  22
ENDBRANCH   4  14
BRANCH   8  24
HETATM   24  O17         0      69.163   9.113   9.784  1.00  0.00    -0.359 OA
HETATM   25  H17         0      68.406   8.839   9.280  1.00  0.00     0.218 HD
ENDBRANCH   8  24
TORSDOF 5
ENDMDL
MODEL 4
REMARK VINA RESULT:      -5.9      3.467      8.910
REMARK  5 active torsions:
REMARK  status: ('A' for Active; 'I' for Inactive)
REMARK    1  A    between atoms: C4_4  and  C5_5 
REMARK    2  A    between atoms: C8_8  and  O9_9 
REMARK    3  A    between atoms: C10_11  and  O11_12 
REMARK    4  A    between atoms: C16_18  and  O17_19 
REMARK    5  A    between atoms: C19_22  and  O20_23 
ROOT
HETATM    1  O1          0      65.210   7.458  14.438  1.00  0.00    -0.286 OA
HETATM    2  C2          0      66.260   8.113  14.196  1.00  0.00     0.201 C 
HETATM    3  C3          0      66.597   9.270  14.877  1.00  0.00     0.067 C 
HETATM    4  C4          0      67.707  10.028  14.521  1.00  0.00     0.103 C 
HETATM    5  O13         0      68.464   9.614  13.520  1.00  0.00    -0.307 OA
HETATM    6  C14         0      68.169   8.543  12.817  1.00  0.00     0.107 C 
HETATM    7  C15         0      68.701   8.329  11.554  1.00  0.00     0.049 C 
HETATM    8  C16         0      68.198   7.340  10.716  1.00  0.00     0.093 C 
HETATM    9  C18         0      67.558   6.291  11.366  1.00  0.00     0.048 C 
HETATM   10  C19         0      67.054   6.458  12.648  1.00  0.00     0.096 C 
HETATM   11  C21         0      67.203   7.659  13.286  1.00  0.00     0.084 C 
ENDROOT
BRANCH  10  12
HETATM   12  O20         0      66.065   5.594  13.108  1.00  0.00    -0.359 OA
HETATM   13  H20         0      65.253   5.973  13.423  1.00  0.00     0.218 HD
ENDBRANCH  10  12
BRANCH   4  14
HETATM   14  C5          0      67.669  11.459  14.831  1.00  0.00     0.025 C 
HETATM   15  C6          0      68.452  12.035  15.821  1.00  0.00     0.004 C 
HETATM   16  C7          0      68.985  13.295  15.568  1.00  0.00     0.026 C 
HETATM   17  C8          0      68.644  14.017  14.430  1.00  0.00     0.112 C 
HETATM   18  C10         0      67.428  13.662  13.862  1.00  0.00     0.112 C 
HETATM   19  C12         0      66.959  12.369  14.059  1.00  0.00     0.028 C 
BRANCH  17  20
HETATM   20  O9          0      69.560  14.858  13.823  1.00  0.00    -0.357 OA
HETATM   21  H9          0      70.370  14.558  13.426  1.00  0.00     0.218 HD
ENDBRANCH  17  20
BRANCH  18  22
HETATM   22  O11         0      66.951  14.473  12.841  1.00  0.00    -0.357 OA
HETATM   23  H11         0      66.935  15.408  13.007  1.00  0.00     0.218 HD
ENDBRANCH  18  22
ENDBRANCH   4  14
BRANCH   8  24
HETATM   24  O17         0      68.049   7.556   9.342  1.00  0.00    -0.359 OA
HETATM   25  H17         0      68.406   8.325   8.916  1.00  0.00     0.218 HD
ENDBRANCH   8  24
TORSDOF 5
ENDMDL
MODEL 5
REMARK VINA RESULT:      -5.8      2.979      8.686
REMARK  5 active torsions:
REMARK  status: ('A' for Active; 'I' for Inactive)
REMARK    1  A    between atoms: C4_4  and  C5_5 
REMARK    2  A    between atoms: C8_8  and  O9_9 
REMARK    3  A    between atoms: C10_11  and  O11_12 
REMARK    4  A    between atoms: C16_18  and  O17_19 
REMARK    5  A    between atoms: C19_22  and  O20_23 
ROOT
HETATM    1  O1          0      70.308   8.292  12.654  1.00  0.00    -0.286 OA
HETATM    2  C2          0      69.233   8.824  13.044  1.00  0.00     0.201 C 
HETATM    3  C3          0      69.107  10.184  13.272  1.00  0.00     0.067 C 
HETATM    4  C4          0      67.942  10.730  13.799  1.00  0.00     0.103 C 
HETATM    5  O13         0      66.929   9.925  14.066  1.00  0.00    -0.307 OA
HETATM    6  C14         0      67.008   8.623  13.904  1.00  0.00     0.107 C 
HETATM    7  C15         0      66.134   7.752  14.538  1.00  0.00     0.049 C 
HETATM    8  C16         0      66.374   6.384  14.570  1.00  0.00     0.093 C 
HETATM    9  C18         0      67.173   5.904  13.539  1.00  0.00     0.048 C 
HETATM   10  C19         0      68.026   6.758  12.852  1.00  0.00     0.096 C 
HETATM   11  C21         0      68.067   8.085  13.180  1.00  0.00     0.084 C 
ENDROOT
BRANCH  10  12
HETATM   12  O20         0      69.105   6.224  12.153  1.00  0.00    -0.359 OA
HETATM   13  H20         0      69.019   5.345  11.806  1.00  0.00     0.218 HD
ENDBRANCH  10  12
BRANCH   4  14
HETATM   14  C5          0      68.069  11.978  14.554  1.00  0.00     0.025 C 
HETATM   15  C6          0      68.510  12.021  15.868  1.00  0.00     0.004 C 
HETATM   16  C7          0      69.335  13.078  16.238  1.00  0.00     0.026 C 
HETATM   17  C8          0      69.605  14.131  15.370  1.00  0.00     0.112 C 
HETATM   18  C10         0      68.655  14.319  14.374  1.00  0.00     0.112 C 
HETATM   19  C12         0      67.903  13.224  13.964  1.00  0.00     0.028 C 
BRANCH  17  20
HETATM   20  O9          0      70.829  14.775  15.396  1.00  0.00    -0.357 OA
HETATM   21  H9          0      71.350  14.949  14.620  1.00  0.00     0.218 HD
ENDBRANCH  17  20
BRANCH  18  22
HETATM   22  O11         0      68.775  15.464  13.600  1.00  0.00    -0.357 OA
HETATM   23  H11         0      69.656  15.746  13.383  1.00  0.00     0.218 HD
ENDBRANCH  18  22
ENDBRANCH   4  14
BRANCH   8  24
HETATM   24  O17         0      66.121   5.625  15.718  1.00  0.00    -0.359 OA
HETATM   25  H17         0      65.356   5.780  16.260  1.00  0.00     0.218 HD
ENDBRANCH   8  24
TORSDOF 5
ENDMDL
MODEL 6
REMARK VINA RESULT:      -5.7      3.878      6.389
REMARK  5 active torsions:
REMARK  status: ('A' for Active; 'I' for Inactive)
REMARK    1  A    between atoms: C4_4  and  C5_5 
REMARK    2  A    between atoms: C8_8  and  O9_9 
REMARK    3  A    between atoms: C10_11  and  O11_12 
REMARK    4  A    between atoms: C16_18  and  O17_19 
REMARK    5  A    between atoms: C19_22  and  O20_23 
ROOT
HETATM    1  O1          0      72.041  11.714  13.643  1.00  0.00    -0.286 OA
HETATM    2  C2          0      70.937  11.109  13.567  1.00  0.00     0.201 C 
HETATM    3  C3          0      70.750   9.982  12.785  1.00  0.00     0.067 C 
HETATM    4  C4          0      69.499   9.395  12.639  1.00  0.00     0.103 C 
HETATM    5  O13         0      68.472   9.922  13.282  1.00  0.00    -0.307 OA
HETATM    6  C14         0      68.586  11.013  14.007  1.00  0.00     0.107 C 
HETATM    7  C15         0      67.484  11.785  14.346  1.00  0.00     0.049 C 
HETATM    8  C16         0      67.632  13.056  14.886  1.00  0.00     0.093 C 
HETATM    9  C18         0      68.838  13.280  15.540  1.00  0.00     0.048 C 
HETATM   10  C19         0      69.948  12.496  15.259  1.00  0.00     0.096 C 
HETATM   11  C21         0      69.851  11.484  14.344  1.00  0.00     0.084 C 
ENDROOT
BRANCH  10  12
HETATM   12  O20         0      71.217  12.978  15.566  1.00  0.00    -0.359 OA
HETATM   13  H20         0      71.797  12.418  16.067  1.00  0.00     0.218 HD
ENDBRANCH  10  12
BRANCH   4  14
HETATM   14  C5          0      69.249   8.648  11.405  1.00  0.00     0.025 C 
HETATM   15  C6          0      68.197   7.755  11.266  1.00  0.00     0.004 C 
HETATM   16  C7          0      67.539   7.718  10.041  1.00  0.00     0.026 C 
HETATM   17  C8          0      67.994   8.446   8.947  1.00  0.00     0.112 C 
HETATM   18  C10         0      69.342   8.776   8.990  1.00  0.00     0.112 C 
HETATM   19  C12         0      69.954   8.889  10.233  1.00  0.00     0.028 C 
BRANCH  17  20
HETATM   20  O9          0      67.106   8.963   8.020  1.00  0.00    -0.357 OA
HETATM   21  H9          0      66.177   9.073   8.184  1.00  0.00     0.218 HD
ENDBRANCH  17  20
BRANCH  18  22
HETATM   22  O11         0      69.890   9.334   7.844  1.00  0.00    -0.357 OA
HETATM   23  H11         0      70.674   8.924   7.498  1.00  0.00     0.218 HD
ENDBRANCH  18  22
ENDBRANCH   4  14
BRANCH   8  24
HETATM   24  O17         0      66.793  14.111  14.509  1.00  0.00    -0.359 OA
HETATM   25  H17         0      66.659  14.341  13.597  1.00  0.00     0.218 HD
ENDBRANCH   8  24
TORSDOF 5
ENDMDL
MODEL 7
REMARK VINA RESULT:      -5.5      3.760      8.897
REMARK  5 active torsions:
REMARK  status: ('A' for Active; 'I' for Inactive)
REMARK    1  A    between atoms: C4_4  and  C5_5 
REMARK    2  A    between atoms: C8_8  and  O9_9 
REMARK    3  A    between atoms: C10_11  and  O11_12 
REMARK    4  A    between atoms: C16_18  and  O17_19 
REMARK    5  A    between atoms: C19_22  and  O20_23 
ROOT
HETATM    1  O1          0      66.402   7.451  13.894  1.00  0.00    -0.286 OA
HETATM    2  C2          0      67.359   8.133  13.434  1.00  0.00     0.201 C 
HETATM    3  C3          0      67.820   9.286  14.046  1.00  0.00     0.067 C 
HETATM    4  C4          0      68.807  10.074  13.465  1.00  0.00     0.103 C 
HETATM    5  O13         0      69.325   9.694  12.310  1.00  0.00    -0.307 OA
HETATM    6  C14         0      68.897   8.628  11.669  1.00  0.00     0.107 C 
HETATM    7  C15         0      69.134   8.446  10.314  1.00  0.00     0.049 C 
HETATM    8  C16         0      68.471   7.461   9.592  1.00  0.00     0.093 C 
HETATM    9  C18         0      68.014   6.387  10.346  1.00  0.00     0.048 C 
HETATM   10  C19         0      67.811   6.521  11.713  1.00  0.00     0.096 C 
HETATM   11  C21         0      68.079   7.715  12.326  1.00  0.00     0.084 C 
ENDROOT
BRANCH  10  12
HETATM   12  O20         0      66.968   5.628  12.366  1.00  0.00    -0.359 OA
HETATM   13  H20         0      66.036   5.691  12.197  1.00  0.00     0.218 HD
ENDBRANCH  10  12
BRANCH   4  14
HETATM   14  C5          0      68.814  11.498  13.805  1.00  0.00     0.025 C 
HETATM   15  C6          0      67.671  12.186  14.184  1.00  0.00     0.004 C 
HETATM   16  C7          0      67.796  13.142  15.187  1.00  0.00     0.026 C 
HETATM   17  C8          0      69.037  13.499  15.703  1.00  0.00     0.112 C 
HETATM   18  C10         0      70.110  13.249  14.858  1.00  0.00     0.112 C 
HETATM   19  C12         0      69.989  12.230  13.921  1.00  0.00     0.028 C 
BRANCH  17  20
HETATM   20  O9          0      69.174  13.869  17.030  1.00  0.00    -0.357 OA
HETATM   21  H9          0      68.441  13.985  17.623  1.00  0.00     0.218 HD
ENDBRANCH  17  20
BRANCH  18  22
HETATM   22  O11         0      71.344  13.755  15.242  1.00  0.00    -0.357 OA
HETATM   23  H11         0      72.011  13.124  15.486  1.00  0.00     0.218 HD
ENDBRANCH  18  22
ENDBRANCH   4  14
BRANCH   8  24
HETATM   24  O17         0      68.011   7.695   8.291  1.00  0.00    -0.359 OA
HETATM   25  H17         0      68.579   8.049   7.617  1.00  0.00     0.218 HD
ENDBRANCH   8  24
TORSDOF 5
ENDMDL
MODEL 8
REMARK VINA RESULT:      -5.5      3.837      5.806
REMARK  5 active torsions:
REMARK  status: ('A' for Active; 'I' for Inactive)
REMARK    1  A    between atoms: C4_4  and  C5_5 
REMARK    2  A    between atoms: C8_8  and  O9_9 
REMARK    3  A    between atoms: C10_11  and  O11_12 
REMARK    4  A    between atoms: C16_18  and  O17_19 
REMARK    5  A    between atoms: C19_22  and  O20_23 
ROOT
HETATM    1  O1          0      67.713  11.584  16.162  1.00  0.00    -0.286 OA
HETATM    2  C2          0      68.390  11.304  15.135  1.00  0.00     0.201 C 
HETATM    3  C3          0      67.982  10.367  14.201  1.00  0.00     0.067 C 
HETATM    4  C4          0      68.794  10.003  13.132  1.00  0.00     0.103 C 
HETATM    5  O13         0      69.972  10.587  13.003  1.00  0.00    -0.307 OA
HETATM    6  C14         0      70.423  11.455  13.881  1.00  0.00     0.107 C 
HETATM    7  C15         0      71.772  11.762  13.980  1.00  0.00     0.049 C 
HETATM    8  C16         0      72.272  12.475  15.063  1.00  0.00     0.093 C 
HETATM    9  C18         0      71.348  13.287  15.709  1.00  0.00     0.048 C 
HETATM   10  C19         0      69.987  13.037  15.593  1.00  0.00     0.096 C 
HETATM   11  C21         0      69.552  11.993  14.823  1.00  0.00     0.084 C 
ENDROOT
BRANCH  10  12
HETATM   12  O20         0      69.117  13.548  16.551  1.00  0.00    -0.359 OA
HETATM   13  H20         0      68.184  13.471  16.392  1.00  0.00     0.218 HD
ENDBRANCH  10  12
BRANCH   4  14
HETATM   14  C5          0      68.607   8.662  12.575  1.00  0.00     0.025 C 
HETATM   15  C6          0      68.091   7.606  13.314  1.00  0.00     0.004 C 
HETATM   16  C7          0      67.232   6.725  12.665  1.00  0.00     0.026 C 
HETATM   17  C8          0      66.997   6.810  11.297  1.00  0.00     0.112 C 
HETATM   18  C10         0      67.998   7.445  10.575  1.00  0.00     0.112 C 
HETATM   19  C12         0      68.789   8.384  11.227  1.00  0.00     0.028 C 
BRANCH  17  20
HETATM   20  O9          0      65.764   6.472  10.767  1.00  0.00    -0.357 OA
HETATM   21  H9          0      64.947   6.882  11.028  1.00  0.00     0.218 HD
ENDBRANCH  17  20
BRANCH  18  22
HETATM   22  O11         0      67.907   7.390   9.191  1.00  0.00    -0.357 OA
HETATM   23  H11         0      68.721   7.435   8.704  1.00  0.00     0.218 HD
ENDBRANCH  18  22
ENDBRANCH   4  14
BRANCH   8  24
HETATM   24  O17         0      73.498  12.144  15.651  1.00  0.00    -0.359 OA
HETATM   25  H17         0      73.853  11.264  15.603  1.00  0.00     0.218 HD
ENDBRANCH   8  24
TORSDOF 5
ENDMDL
MODEL 9
REMARK VINA RESULT:      -5.4      1.758      3.030
REMARK  5 active torsions:
REMARK  status: ('A' for Active; 'I' for Inactive)
REMARK    1  A    between atoms: C4_4  and  C5_5 
REMARK    2  A    between atoms: C8_8  and  O9_9 
REMARK    3  A    between atoms: C10_11  and  O11_12 
REMARK    4  A    between atoms: C16_18  and  O17_19 
REMARK    5  A    between atoms: C19_22  and  O20_23 
ROOT
HETATM    1  O1          0      73.331  17.822  14.244  1.00  0.00    -0.286 OA
HETATM    2  C2          0      72.137  17.445  14.394  1.00  0.00     0.201 C 
HETATM    3  C3          0      71.798  16.250  15.005  1.00  0.00     0.067 C 
HETATM    4  C4          0      70.481  15.810  15.066  1.00  0.00     0.103 C 
HETATM    5  O13         0      69.534  16.568  14.543  1.00  0.00    -0.307 OA
HETATM    6  C14         0      69.804  17.693  13.918  1.00  0.00     0.107 C 
HETATM    7  C15         0      68.903  18.276  13.040  1.00  0.00     0.049 C 
HETATM    8  C16         0      69.285  19.313  12.196  1.00  0.00     0.093 C 
HETATM    9  C18         0      70.375  20.055  12.634  1.00  0.00     0.048 C 
HETATM   10  C19         0      71.271  19.519  13.549  1.00  0.00     0.096 C 
HETATM   11  C21         0      71.071  18.256  14.036  1.00  0.00     0.084 C 
ENDROOT
BRANCH  10  12
HETATM   12  O20         0      72.549  20.060  13.647  1.00  0.00    -0.359 OA
HETATM   13  H20         0      72.687  20.768  14.264  1.00  0.00     0.218 HD
ENDBRANCH  10  12
BRANCH   4  14
HETATM   14  C5          0      70.261  14.365  15.152  1.00  0.00     0.025 C 
HETATM   15  C6          0      69.684  13.756  16.257  1.00  0.00     0.004 C 
HETATM   16  C7          0      68.812  12.697  16.027  1.00  0.00     0.026 C 
HETATM   17  C8          0      68.623  12.171  14.754  1.00  0.00     0.112 C 
HETATM   18  C10         0      69.669  12.400  13.871  1.00  0.00     0.112 C 
HETATM   19  C12         0      70.474  13.515  14.075  1.00  0.00     0.028 C 
BRANCH  17  20
HETATM   20  O9          0      67.395  11.657  14.374  1.00  0.00    -0.357 OA
HETATM   21  H9          0      66.912  11.015  14.881  1.00  0.00     0.218 HD
ENDBRANCH  17  20
BRANCH  18  22
HETATM   22  O11         0      69.619  11.739  12.651  1.00  0.00    -0.357 OA
HETATM   23  H11         0      70.264  11.988  12.000  1.00  0.00     0.218 HD
ENDBRANCH  18  22
ENDBRANCH   4  14
BRANCH   8  24
HETATM   24  O17         0      68.831  19.382  10.874  1.00  0.00    -0.359 OA
HETATM   25  H17         0      69.422  19.565  10.153  1.00  0.00     0.218 HD
ENDBRANCH   8  24
TORSDOF 5
ENDMDL
