MODEL 1
REMARK VINA RESULT:      -5.3      0.000      0.000
REMARK  5 active torsions:
REMARK  status: ('A' for Active; 'I' for Inactive)
REMARK    1  A    between atoms: C4_4  and  C5_5 
REMARK    2  A    between atoms: C8_8  and  O9_9 
REMARK    3  A    between atoms: C10_11  and  O11_12 
REMARK    4  A    between atoms: C16_18  and  O17_19 
REMARK    5  A    between atoms: C19_22  and  O20_23 
ROOT
HETATM    1  O1          0      55.527  97.478 -24.653  1.00  0.00    -0.286 OA
HETATM    2  C2          0      54.336  97.102 -24.477  1.00  0.00     0.201 C 
HETATM    3  C3          0      53.971  96.207 -23.486  1.00  0.00     0.067 C 
HETATM    4  C4          0      52.669  95.730 -23.379  1.00  0.00     0.103 C 
HETATM    5  O13         0      51.762  96.164 -24.236  1.00  0.00    -0.307 OA
HETATM    6  C14         0      52.064  96.984 -25.218  1.00  0.00     0.107 C 
HETATM    7  C15         0      51.247  97.125 -26.331  1.00  0.00     0.049 C 
HETATM    8  C16         0      51.686  97.788 -27.470  1.00  0.00     0.093 C 
HETATM    9  C18         0      52.697  98.717 -27.255  1.00  0.00     0.048 C 
HETATM   10  C19         0      53.504  98.633 -26.128  1.00  0.00     0.096 C 
HETATM   11  C21         0      53.291  97.639 -25.213  1.00  0.00     0.084 C 
ENDROOT
BRANCH  10  12
HETATM   12  O20         0      54.746  99.261 -26.132  1.00  0.00    -0.359 OA
HETATM   13  H20         0      55.334  99.079 -26.855  1.00  0.00     0.218 HD
ENDBRANCH  10  12
BRANCH   4  14
HETATM   14  C5          0      52.487  94.414 -22.764  1.00  0.00     0.025 C 
HETATM   15  C6          0      51.243  93.922 -22.395  1.00  0.00     0.004 C 
HETATM   16  C7          0      50.999  92.568 -22.597  1.00  0.00     0.026 C 
HETATM   17  C8          0      52.000  91.703 -23.025  1.00  0.00     0.112 C 
HETATM   18  C10         0      53.293  92.133 -22.756  1.00  0.00     0.112 C 
HETATM   19  C12         0      53.524  93.499 -22.643  1.00  0.00     0.028 C 
BRANCH  17  20
HETATM   20  O9          0      51.704  90.621 -23.836  1.00  0.00    -0.357 OA
HETATM   21  H9          0      52.251  90.338 -24.560  1.00  0.00     0.218 HD
ENDBRANCH  17  20
BRANCH  18  22
HETATM   22  O11         0      54.318  91.227 -22.990  1.00  0.00    -0.357 OA
HETATM   23  H11         0      55.185  91.588 -23.135  1.00  0.00     0.218 HD
ENDBRANCH  18  22
ENDBRANCH   4  14
BRANCH   8  24
HETATM   24  O17         0      51.379  97.318 -28.752  1.00  0.00    -0.359 OA
HETATM   25  H17         0      50.495  97.066 -28.992  1.00  0.00     0.218 HD
ENDBRANCH   8  24
TORSDOF 5
ENDMDL
MODEL 2
REMARK VINA RESULT:      -5.0      3.735      6.380
REMARK  5 active torsions:
REMARK  status: ('A' for Active; 'I' for Inactive)
REMARK    1  A    between atoms: C4_4  and  C5_5 
REMARK    2  A    between atoms: C8_8  and  O9_9 
REMARK    3  A    between atoms: C10_11  and  O11_12 
REMARK    4  A    between atoms: C16_18  and  O17_19 
REMARK    5  A    between atoms: C19_22  and  O20_23 
ROOT
HETATM    1  O1          0      52.734  95.738 -25.120  1.00  0.00    -0.286 OA
HETATM    2  C2          0      53.740  95.203 -24.579  1.00  0.00     0.201 C 
HETATM    3  C3          0      55.035  95.425 -25.017  1.00  0.00     0.067 C 
HETATM    4  C4          0      56.116  94.744 -24.470  1.00  0.00     0.103 C 
HETATM    5  O13         0      55.895  93.880 -23.494  1.00  0.00    -0.307 OA
HETATM    6  C14         0      54.682  93.605 -23.066  1.00  0.00     0.107 C 
HETATM    7  C15         0      54.404  92.448 -22.353  1.00  0.00     0.049 C 
HETATM    8  C16         0      53.096  92.037 -22.127  1.00  0.00     0.093 C 
HETATM    9  C18         0      52.147  93.052 -22.161  1.00  0.00     0.048 C 
HETATM   10  C19         0      52.411  94.241 -22.826  1.00  0.00     0.096 C 
HETATM   11  C21         0      53.621  94.423 -23.438  1.00  0.00     0.084 C 
ENDROOT
BRANCH  10  12
HETATM   12  O20         0      51.349  95.046 -23.227  1.00  0.00    -0.359 OA
HETATM   13  H20         0      51.320  95.939 -22.905  1.00  0.00     0.218 HD
ENDBRANCH  10  12
BRANCH   4  14
HETATM   14  C5          0      57.291  94.557 -25.322  1.00  0.00     0.025 C 
HETATM   15  C6          0      58.423  93.874 -24.904  1.00  0.00     0.004 C 
HETATM   16  C7          0      59.070  93.066 -25.834  1.00  0.00     0.026 C 
HETATM   17  C8          0      58.686  93.041 -27.170  1.00  0.00     0.112 C 
HETATM   18  C10         0      58.011  94.176 -27.601  1.00  0.00     0.112 C 
HETATM   19  C12         0      57.303  94.918 -26.663  1.00  0.00     0.028 C 
BRANCH  17  20
HETATM   20  O9          0      58.793  91.881 -27.917  1.00  0.00    -0.357 OA
HETATM   21  H9          0      59.483  91.240 -27.799  1.00  0.00     0.218 HD
ENDBRANCH  17  20
BRANCH  18  22
HETATM   22  O11         0      57.773  94.286 -28.963  1.00  0.00    -0.357 OA
HETATM   23  H11         0      58.142  95.042 -29.405  1.00  0.00     0.218 HD
ENDBRANCH  18  22
ENDBRANCH   4  14
BRANCH   8  24
HETATM   24  O17         0      52.732  90.687 -22.200  1.00  0.00    -0.359 OA
HETATM   25  H17         0      53.156  90.027 -21.664  1.00  0.00     0.218 HD
ENDBRANCH   8  24
TORSDOF 5
ENDMDL
MODEL 3
REMARK VINA RESULT:      -4.9      1.797      2.391
REMARK  5 active torsions:
REMARK  status: ('A' for Active; 'I' for Inactive)
REMARK    1  A    between atoms: C4_4  and  C5_5 
REMARK    2  A    between atoms: C8_8  and  O9_9 
REMARK    3  A    between atoms: C10_11  and  O11_12 
REMARK    4  A    between atoms: C16_18  and  O17_19 
REMARK    5  A    between atoms: C19_22  and  O20_23 
ROOT
HETATM    1  O1          0      55.084  97.144 -26.827  1.00  0.00    -0.286 OA
HETATM    2  C2          0      53.948  97.082 -26.283  1.00  0.00     0.201 C 
HETATM    3  C3          0      53.744  96.526 -25.031  1.00  0.00     0.067 C 
HETATM    4  C4          0      52.469  96.378 -24.499  1.00  0.00     0.103 C 
HETATM    5  O13         0      51.433  96.800 -25.203  1.00  0.00    -0.307 OA
HETATM    6  C14         0      51.568  97.301 -26.412  1.00  0.00     0.107 C 
HETATM    7  C15         0      50.502  97.369 -27.298  1.00  0.00     0.049 C 
HETATM    8  C16         0      50.699  97.657 -28.643  1.00  0.00     0.093 C 
HETATM    9  C18         0      51.859  98.368 -28.927  1.00  0.00     0.048 C 
HETATM   10  C19         0      52.927  98.359 -28.041  1.00  0.00     0.096 C 
HETATM   11  C21         0      52.832  97.659 -26.869  1.00  0.00     0.084 C 
ENDROOT
BRANCH  10  12
HETATM   12  O20         0      54.198  98.687 -28.503  1.00  0.00    -0.359 OA
HETATM   13  H20         0      54.496  99.581 -28.391  1.00  0.00     0.218 HD
ENDBRANCH  10  12
BRANCH   4  14
HETATM   14  C5          0      52.269  95.299 -23.529  1.00  0.00     0.025 C 
HETATM   15  C6          0      52.404  93.958 -23.858  1.00  0.00     0.004 C 
HETATM   16  C7          0      52.988  93.119 -22.914  1.00  0.00     0.026 C 
HETATM   17  C8          0      53.303  93.566 -21.636  1.00  0.00     0.112 C 
HETATM   18  C10         0      52.577  94.671 -21.213  1.00  0.00     0.112 C 
HETATM   19  C12         0      52.077  95.541 -22.175  1.00  0.00     0.028 C 
BRANCH  17  20
HETATM   20  O9          0      54.400  93.063 -20.960  1.00  0.00    -0.357 OA
HETATM   21  H9          0      55.163  93.582 -20.732  1.00  0.00     0.218 HD
ENDBRANCH  17  20
BRANCH  18  22
HETATM   22  O11         0      52.715  95.043 -19.883  1.00  0.00    -0.357 OA
HETATM   23  H11         0      52.005  94.810 -19.296  1.00  0.00     0.218 HD
ENDBRANCH  18  22
ENDBRANCH   4  14
BRANCH   8  24
HETATM   24  O17         0      49.977  96.996 -29.643  1.00  0.00    -0.359 OA
HETATM   25  H17         0      50.357  96.814 -30.495  1.00  0.00     0.218 HD
ENDBRANCH   8  24
TORSDOF 5
ENDMDL
MODEL 4
REMARK VINA RESULT:      -4.8      1.432      2.097
REMARK  5 active torsions:
REMARK  status: ('A' for Active; 'I' for Inactive)
REMARK    1  A    between atoms: C4_4  and  C5_5 
REMARK    2  A    between atoms: C8_8  and  O9_9 
REMARK    3  A    between atoms: C10_11  and  O11_12 
REMARK    4  A    between atoms: C16_18  and  O17_19 
REMARK    5  A    between atoms: C19_22  and  O20_23 
ROOT
HETATM    1  O1          0      54.424  99.152 -26.214  1.00  0.00    -0.286 OA
HETATM    2  C2          0      53.407  98.524 -25.811  1.00  0.00     0.201 C 
HETATM    3  C3          0      53.390  97.800 -24.631  1.00  0.00     0.067 C 
HETATM    4  C4          0      52.290  97.034 -24.262  1.00  0.00     0.103 C 
HETATM    5  O13         0      51.232  97.020 -25.053  1.00  0.00    -0.307 OA
HETATM    6  C14         0      51.210  97.659 -26.202  1.00  0.00     0.107 C 
HETATM    7  C15         0      50.301  97.338 -27.200  1.00  0.00     0.049 C 
HETATM    8  C16         0      50.442  97.832 -28.491  1.00  0.00     0.093 C 
HETATM    9  C18         0      51.162  99.016 -28.591  1.00  0.00     0.048 C 
HETATM   10  C19         0      52.046  99.392 -27.588  1.00  0.00     0.096 C 
HETATM   11  C21         0      52.197  98.597 -26.485  1.00  0.00     0.084 C 
ENDROOT
BRANCH  10  12
HETATM   12  O20         0      53.054 100.306 -27.877  1.00  0.00    -0.359 OA
HETATM   13  H20         0      53.757 100.027 -28.451  1.00  0.00     0.218 HD
ENDBRANCH  10  12
BRANCH   4  14
HETATM   14  C5          0      52.538  95.880 -23.396  1.00  0.00     0.025 C 
HETATM   15  C6          0      52.420  95.938 -22.014  1.00  0.00     0.004 C 
HETATM   16  C7          0      51.880  94.831 -21.367  1.00  0.00     0.026 C 
HETATM   17  C8          0      51.591  93.655 -22.051  1.00  0.00     0.112 C 
HETATM   18  C10         0      52.306  93.478 -23.227  1.00  0.00     0.112 C 
HETATM   19  C12         0      52.762  94.606 -23.900  1.00  0.00     0.028 C 
BRANCH  17  20
HETATM   20  O9          0      50.523  92.860 -21.674  1.00  0.00    -0.357 OA
HETATM   21  H9          0      49.723  92.776 -22.179  1.00  0.00     0.218 HD
ENDBRANCH  17  20
BRANCH  18  22
HETATM   22  O11         0      52.197  92.242 -23.848  1.00  0.00    -0.357 OA
HETATM   23  H11         0      51.710  91.569 -23.386  1.00  0.00     0.218 HD
ENDBRANCH  18  22
ENDBRANCH   4  14
BRANCH   8  24
HETATM   24  O17         0      50.180  97.033 -29.610  1.00  0.00    -0.359 OA
HETATM   25  H17         0      50.639  97.161 -30.432  1.00  0.00     0.218 HD
ENDBRANCH   8  24
TORSDOF 5
ENDMDL
MODEL 5
REMARK VINA RESULT:      -4.7      2.063      6.556
REMARK  5 active torsions:
REMARK  status: ('A' for Active; 'I' for Inactive)
REMARK    1  A    between atoms: C4_4  and  C5_5 
REMARK    2  A    between atoms: C8_8  and  O9_9 
REMARK    3  A    between atoms: C10_11  and  O11_12 
REMARK    4  A    between atoms: C16_18  and  O17_19 
REMARK    5  A    between atoms: C19_22  and  O20_23 
ROOT
HETATM    1  O1          0      55.034  94.442 -24.988  1.00  0.00    -0.286 OA
HETATM    2  C2          0      53.887  94.964 -24.939  1.00  0.00     0.201 C 
HETATM    3  C3          0      53.352  95.700 -25.983  1.00  0.00     0.067 C 
HETATM    4  C4          0      52.130  96.350 -25.865  1.00  0.00     0.103 C 
HETATM    5  O13         0      51.460  96.241 -24.732  1.00  0.00    -0.307 OA
HETATM    6  C14         0      51.938  95.586 -23.697  1.00  0.00     0.107 C 
HETATM    7  C15         0      51.456  95.794 -22.413  1.00  0.00     0.049 C 
HETATM    8  C16         0      52.126  95.299 -21.301  1.00  0.00     0.093 C 
HETATM    9  C18         0      52.935  94.196 -21.546  1.00  0.00     0.048 C 
HETATM   10  C19         0      53.397  93.932 -22.828  1.00  0.00     0.096 C 
HETATM   11  C21         0      53.040  94.754 -23.862  1.00  0.00     0.084 C 
ENDROOT
BRANCH  10  12
HETATM   12  O20         0      54.519  93.125 -22.994  1.00  0.00    -0.359 OA
HETATM   13  H20         0      54.835  92.978 -23.877  1.00  0.00     0.218 HD
ENDBRANCH  10  12
BRANCH   4  14
HETATM   14  C5          0      51.919  97.537 -26.697  1.00  0.00     0.025 C 
HETATM   15  C6          0      52.748  98.648 -26.645  1.00  0.00     0.004 C 
HETATM   16  C7          0      53.034  99.295 -27.843  1.00  0.00     0.026 C 
HETATM   17  C8          0      52.412  98.934 -29.034  1.00  0.00     0.112 C 
HETATM   18  C10         0      51.192  98.290 -28.878  1.00  0.00     0.112 C 
HETATM   19  C12         0      50.965  97.579 -27.706  1.00  0.00     0.028 C 
BRANCH  17  20
HETATM   20  O9          0      53.081  99.032 -30.241  1.00  0.00    -0.357 OA
HETATM   21  H9          0      52.657  99.251 -31.063  1.00  0.00     0.218 HD
ENDBRANCH  17  20
BRANCH  18  22
HETATM   22  O11         0      50.443  98.077 -30.027  1.00  0.00    -0.357 OA
HETATM   23  H11         0      50.770  97.429 -30.640  1.00  0.00     0.218 HD
ENDBRANCH  18  22
ENDBRANCH   4  14
BRANCH   8  24
HETATM   24  O17         0      52.241  96.049 -20.125  1.00  0.00    -0.359 OA
HETATM   25  H17         0      51.518  96.566 -19.790  1.00  0.00     0.218 HD
ENDBRANCH   8  24
TORSDOF 5
ENDMDL
MODEL 6
REMARK VINA RESULT:      -4.5      3.915      6.890
REMARK  5 active torsions:
REMARK  status: ('A' for Active; 'I' for Inactive)
REMARK    1  A    between atoms: C4_4  and  C5_5 
REMARK    2  A    between atoms: C8_8  and  O9_9 
REMARK    3  A    between atoms: C10_11  and  O11_12 
REMARK    4  A    between atoms: C16_18  and  O17_19 
REMARK    5  A    between atoms: C19_22  and  O20_23 
ROOT
HETATM    1  O1          0      52.088  97.161 -27.818  1.00  0.00    -0.286 OA
HETATM    2  C2          0      53.216  97.050 -27.264  1.00  0.00     0.201 C 
HETATM    3  C3          0      54.401  97.374 -27.902  1.00  0.00     0.067 C 
HETATM    4  C4          0      55.636  97.145 -27.306  1.00  0.00     0.103 C 
HETATM    5  O13         0      55.668  96.625 -26.092  1.00  0.00    -0.307 OA
HETATM    6  C14         0      54.575  96.265 -25.457  1.00  0.00     0.107 C 
HETATM    7  C15         0      54.607  95.375 -24.393  1.00  0.00     0.049 C 
HETATM    8  C16         0      53.443  94.804 -23.893  1.00  0.00     0.093 C 
HETATM    9  C18         0      52.284  95.536 -24.125  1.00  0.00     0.048 C 
HETATM   10  C19         0      52.233  96.469 -25.152  1.00  0.00     0.096 C 
HETATM   11  C21         0      53.336  96.681 -25.932  1.00  0.00     0.084 C 
ENDROOT
BRANCH  10  12
HETATM   12  O20         0      50.995  96.863 -25.651  1.00  0.00    -0.359 OA
HETATM   13  H20         0      50.742  97.772 -25.546  1.00  0.00     0.218 HD
ENDBRANCH  10  12
BRANCH   4  14
HETATM   14  C5          0      56.780  96.932 -28.195  1.00  0.00     0.025 C 
HETATM   15  C6          0      57.694  95.905 -28.011  1.00  0.00     0.004 C 
HETATM   16  C7          0      58.182  95.265 -29.146  1.00  0.00     0.026 C 
HETATM   17  C8          0      57.877  95.717 -30.426  1.00  0.00     0.112 C 
HETATM   18  C10         0      57.515  97.056 -30.497  1.00  0.00     0.112 C 
HETATM   19  C12         0      56.950  97.648 -29.373  1.00  0.00     0.028 C 
BRANCH  17  20
HETATM   20  O9          0      57.749  94.830 -31.480  1.00  0.00    -0.357 OA
HETATM   21  H9          0      57.015  94.829 -32.083  1.00  0.00     0.218 HD
ENDBRANCH  17  20
BRANCH  18  22
HETATM   22  O11         0      57.385  97.605 -31.765  1.00  0.00    -0.357 OA
HETATM   23  H11         0      57.786  97.129 -32.483  1.00  0.00     0.218 HD
ENDBRANCH  18  22
ENDBRANCH   4  14
BRANCH   8  24
HETATM   24  O17         0      53.398  93.462 -23.501  1.00  0.00    -0.359 OA
HETATM   25  H17         0      53.427  92.755 -24.135  1.00  0.00     0.218 HD
ENDBRANCH   8  24
TORSDOF 5
ENDMDL
MODEL 7
REMARK VINA RESULT:      -4.3      1.893      2.917
REMARK  5 active torsions:
REMARK  status: ('A' for Active; 'I' for Inactive)
REMARK    1  A    between atoms: C4_4  and  C5_5 
REMARK    2  A    between atoms: C8_8  and  O9_9 
REMARK    3  A    between atoms: C10_11  and  O11_12 
REMARK    4  A    between atoms: C16_18  and  O17_19 
REMARK    5  A    between atoms: C19_22  and  O20_23 
ROOT
HETATM    1  O1          0      52.732  98.335 -24.431  1.00  0.00    -0.286 OA
HETATM    2  C2          0      53.165  97.165 -24.613  1.00  0.00     0.201 C 
HETATM    3  C3          0      52.582  96.050 -24.035  1.00  0.00     0.067 C 
HETATM    4  C4          0      53.139  94.784 -24.170  1.00  0.00     0.103 C 
HETATM    5  O13         0      54.242  94.648 -24.885  1.00  0.00    -0.307 OA
HETATM    6  C14         0      54.857  95.678 -25.424  1.00  0.00     0.107 C 
HETATM    7  C15         0      56.185  95.612 -25.819  1.00  0.00     0.049 C 
HETATM    8  C16         0      56.899  96.758 -26.146  1.00  0.00     0.093 C 
HETATM    9  C18         0      56.123  97.832 -26.566  1.00  0.00     0.048 C 
HETATM   10  C19         0      54.779  97.907 -26.229  1.00  0.00     0.096 C 
HETATM   11  C21         0      54.208  96.907 -25.490  1.00  0.00     0.084 C 
ENDROOT
BRANCH  10  12
HETATM   12  O20         0      54.136  99.140 -26.263  1.00  0.00    -0.359 OA
HETATM   13  H20         0      54.358  99.738 -26.967  1.00  0.00     0.218 HD
ENDBRANCH  10  12
BRANCH   4  14
HETATM   14  C5          0      52.866  93.815 -23.106  1.00  0.00     0.025 C 
HETATM   15  C6          0      51.682  93.096 -23.031  1.00  0.00     0.004 C 
HETATM   16  C7          0      51.759  91.770 -22.616  1.00  0.00     0.026 C 
HETATM   17  C8          0      52.951  91.215 -22.163  1.00  0.00     0.112 C 
HETATM   18  C10         0      53.874  92.136 -21.686  1.00  0.00     0.112 C 
HETATM   19  C12         0      53.829  93.434 -22.181  1.00  0.00     0.028 C 
BRANCH  17  20
HETATM   20  O9          0      53.241  89.880 -22.383  1.00  0.00    -0.357 OA
HETATM   21  H9          0      53.723  89.337 -21.771  1.00  0.00     0.218 HD
ENDBRANCH  17  20
BRANCH  18  22
HETATM   22  O11         0      54.998  91.628 -21.050  1.00  0.00    -0.357 OA
HETATM   23  H11         0      55.836  92.005 -21.291  1.00  0.00     0.218 HD
ENDBRANCH  18  22
ENDBRANCH   4  14
BRANCH   8  24
HETATM   24  O17         0      58.234  96.921 -25.760  1.00  0.00    -0.359 OA
HETATM   25  H17         0      58.680  96.278 -25.222  1.00  0.00     0.218 HD
ENDBRANCH   8  24
TORSDOF 5
ENDMDL
MODEL 8
REMARK VINA RESULT:      -4.2      3.622      6.205
REMARK  5 active torsions:
REMARK  status: ('A' for Active; 'I' for Inactive)
REMARK    1  A    between atoms: C4_4  and  C5_5 
REMARK    2  A    between atoms: C8_8  and  O9_9 
REMARK    3  A    between atoms: C10_11  and  O11_12 
REMARK    4  A    between atoms: C16_18  and  O17_19 
REMARK    5  A    between atoms: C19_22  and  O20_23 
ROOT
HETATM    1  O1          0      56.204  94.933 -20.994  1.00  0.00    -0.286 OA
HETATM    2  C2          0      55.836  94.696 -22.177  1.00  0.00     0.201 C 
HETATM    3  C3          0      56.728  94.567 -23.228  1.00  0.00     0.067 C 
HETATM    4  C4          0      56.291  94.409 -24.539  1.00  0.00     0.103 C 
HETATM    5  O13         0      54.991  94.362 -24.773  1.00  0.00    -0.307 OA
HETATM    6  C14         0      54.102  94.517 -23.817  1.00  0.00     0.107 C 
HETATM    7  C15         0      52.787  94.865 -24.090  1.00  0.00     0.049 C 
HETATM    8  C16         0      51.924  95.274 -23.081  1.00  0.00     0.093 C 
HETATM    9  C18         0      52.250  94.817 -21.809  1.00  0.00     0.048 C 
HETATM   10  C19         0      53.546  94.416 -21.514  1.00  0.00     0.096 C 
HETATM   11  C21         0      54.507  94.455 -22.488  1.00  0.00     0.084 C 
ENDROOT
BRANCH  10  12
HETATM   12  O20         0      53.962  94.384 -20.187  1.00  0.00    -0.359 OA
HETATM   13  H20         0      53.300  94.456 -19.511  1.00  0.00     0.218 HD
ENDBRANCH  10  12
BRANCH   4  14
HETATM   14  C5          0      57.182  94.874 -25.603  1.00  0.00     0.025 C 
HETATM   15  C6          0      58.245  94.119 -26.077  1.00  0.00     0.004 C 
HETATM   16  C7          0      58.505  94.158 -27.443  1.00  0.00     0.026 C 
HETATM   17  C8          0      57.820  95.021 -28.291  1.00  0.00     0.112 C 
HETATM   18  C10         0      57.271  96.133 -27.667  1.00  0.00     0.112 C 
HETATM   19  C12         0      56.942  96.039 -26.320  1.00  0.00     0.028 C 
BRANCH  17  20
HETATM   20  O9          0      57.546  94.661 -29.599  1.00  0.00    -0.357 OA
HETATM   21  H9          0      56.713  94.305 -29.885  1.00  0.00     0.218 HD
ENDBRANCH  17  20
BRANCH  18  22
HETATM   22  O11         0      56.742  97.119 -28.489  1.00  0.00    -0.357 OA
HETATM   23  H11         0      57.167  97.969 -28.469  1.00  0.00     0.218 HD
ENDBRANCH  18  22
ENDBRANCH   4  14
BRANCH   8  24
HETATM   24  O17         0      51.018  96.322 -23.276  1.00  0.00    -0.359 OA
HETATM   25  H17         0      50.302  96.482 -22.673  1.00  0.00     0.218 HD
ENDBRANCH   8  24
TORSDOF 5
ENDMDL
MODEL 9
REMARK VINA RESULT:      -4.2      2.839      4.517
REMARK  5 active torsions:
REMARK  status: ('A' for Active; 'I' for Inactive)
REMARK    1  A    between atoms: C4_4  and  C5_5 
REMARK    2  A    between atoms: C8_8  and  O9_9 
REMARK    3  A    between atoms: C10_11  and  O11_12 
REMARK    4  A    between atoms: C16_18  and  O17_19 
REMARK    5  A    between atoms: C19_22  and  O20_23 
ROOT
HETATM    1  O1          0      54.867  98.327 -26.378  1.00  0.00    -0.286 OA
HETATM    2  C2          0      54.784  97.126 -25.999  1.00  0.00     0.201 C 
HETATM    3  C3          0      53.631  96.589 -25.453  1.00  0.00     0.067 C 
HETATM    4  C4          0      53.598  95.294 -24.949  1.00  0.00     0.103 C 
HETATM    5  O13         0      54.694  94.559 -25.016  1.00  0.00    -0.307 OA
HETATM    6  C14         0      55.825  95.032 -25.489  1.00  0.00     0.107 C 
HETATM    7  C15         0      57.045  94.435 -25.203  1.00  0.00     0.049 C 
HETATM    8  C16         0      58.245  95.074 -25.488  1.00  0.00     0.093 C 
HETATM    9  C18         0      58.181  96.021 -26.503  1.00  0.00     0.048 C 
HETATM   10  C19         0      56.969  96.604 -26.847  1.00  0.00     0.096 C 
HETATM   11  C21         0      55.826  96.232 -26.193  1.00  0.00     0.084 C 
ENDROOT
BRANCH  10  12
HETATM   12  O20         0      56.967  97.821 -27.523  1.00  0.00    -0.359 OA
HETATM   13  H20         0      56.219  98.024 -28.071  1.00  0.00     0.218 HD
ENDBRANCH  10  12
BRANCH   4  14
HETATM   14  C5          0      52.621  95.010 -23.896  1.00  0.00     0.025 C 
HETATM   15  C6          0      52.471  93.752 -23.329  1.00  0.00     0.004 C 
HETATM   16  C7          0      52.220  93.687 -21.962  1.00  0.00     0.026 C 
HETATM   17  C8          0      51.991  94.833 -21.207  1.00  0.00     0.112 C 
HETATM   18  C10         0      51.540  95.926 -21.935  1.00  0.00     0.112 C 
HETATM   19  C12         0      51.878  96.009 -23.280  1.00  0.00     0.028 C 
BRANCH  17  20
HETATM   20  O9          0      52.394  94.902 -19.885  1.00  0.00    -0.357 OA
HETATM   21  H9          0      53.089  95.471 -19.574  1.00  0.00     0.218 HD
ENDBRANCH  17  20
BRANCH  18  22
HETATM   22  O11         0      51.118  97.032 -21.210  1.00  0.00    -0.357 OA
HETATM   23  H11         0      51.289  97.025 -20.276  1.00  0.00     0.218 HD
ENDBRANCH  18  22
ENDBRANCH   4  14
BRANCH   8  24
HETATM   24  O17         0      59.330  95.014 -24.606  1.00  0.00    -0.359 OA
HETATM   25  H17         0      59.924  95.747 -24.494  1.00  0.00     0.218 HD
ENDBRANCH   8  24
TORSDOF 5
ENDMDL
