MODEL 1
REMARK VINA RESULT:      -0.0      0.000      0.000
REMARK  5 active torsions:
REMARK  status: ('A' for Active; 'I' for Inactive)
REMARK    1  A    between atoms: C4_4  and  C5_5 
REMARK    2  A    between atoms: C8_8  and  O9_9 
REMARK    3  A    between atoms: C10_11  and  O11_12 
REMARK    4  A    between atoms: C16_18  and  O17_19 
REMARK    5  A    between atoms: C19_22  and  O20_23 
ROOT
HETATM    1  O1          0      31.559  75.059  32.600  1.00  0.00    -0.286 OA
HETATM    2  C2          0      30.411  74.692  32.973  1.00  0.00     0.201 C 
HETATM    3  C3          0      30.000  74.740  34.295  1.00  0.00     0.067 C 
HETATM    4  C4          0      28.769  74.234  34.694  1.00  0.00     0.103 C 
HETATM    5  O13         0      27.970  73.714  33.779  1.00  0.00    -0.307 OA
HETATM    6  C14         0      28.326  73.609  32.517  1.00  0.00     0.107 C 
HETATM    7  C15         0      27.694  72.730  31.649  1.00  0.00     0.049 C 
HETATM    8  C16         0      28.230  72.437  30.401  1.00  0.00     0.093 C 
HETATM    9  C18         0      29.068  73.415  29.879  1.00  0.00     0.048 C 
HETATM   10  C19         0      29.681  74.340  30.714  1.00  0.00     0.096 C 
HETATM   11  C21         0      29.444  74.299  32.061  1.00  0.00     0.084 C 
ENDROOT
BRANCH  10  12
HETATM   12  O20         0      30.818  75.008  30.271  1.00  0.00    -0.359 OA
HETATM   13  H20         0      31.143  74.805  29.402  1.00  0.00     0.218 HD
ENDBRANCH  10  12
BRANCH   4  14
HETATM   14  C5          0      28.652  73.770  36.077  1.00  0.00     0.025 C 
HETATM   15  C6          0      27.879  72.676  36.441  1.00  0.00     0.004 C 
HETATM   16  C7          0      28.377  71.837  37.433  1.00  0.00     0.026 C 
HETATM   17  C8          0      29.537  72.146  38.135  1.00  0.00     0.112 C 
HETATM   18  C10         0      29.861  73.496  38.155  1.00  0.00     0.112 C 
HETATM   19  C12         0      29.422  74.296  37.106  1.00  0.00     0.028 C 
BRANCH  17  20
HETATM   20  O9          0      30.384  71.146  38.580  1.00  0.00    -0.357 OA
HETATM   21  H9          0      31.038  71.271  39.258  1.00  0.00     0.218 HD
ENDBRANCH  17  20
BRANCH  18  22
HETATM   22  O11         0      30.897  73.882  38.994  1.00  0.00    -0.357 OA
HETATM   23  H11         0      31.774  73.869  38.628  1.00  0.00     0.218 HD
ENDBRANCH  18  22
ENDBRANCH   4  14
BRANCH   8  24
HETATM   24  O17         0      28.201  71.138  29.882  1.00  0.00    -0.359 OA
HETATM   25  H17         0      27.670  70.456  30.274  1.00  0.00     0.218 HD
ENDBRANCH   8  24
TORSDOF 5
ENDMDL
MODEL 2
REMARK VINA RESULT:      -0.0      9.263      9.747
REMARK  5 active torsions:
REMARK  status: ('A' for Active; 'I' for Inactive)
REMARK    1  A    between atoms: C4_4  and  C5_5 
REMARK    2  A    between atoms: C8_8  and  O9_9 
REMARK    3  A    between atoms: C10_11  and  O11_12 
REMARK    4  A    between atoms: C16_18  and  O17_19 
REMARK    5  A    between atoms: C19_22  and  O20_23 
ROOT
HETATM    1  O1          0      27.351  83.238  32.998  1.00  0.00    -0.286 OA
HETATM    2  C2          0      26.118  82.984  33.085  1.00  0.00     0.201 C 
HETATM    3  C3          0      25.384  83.218  34.235  1.00  0.00     0.067 C 
HETATM    4  C4          0      24.051  82.835  34.338  1.00  0.00     0.103 C 
HETATM    5  O13         0      23.476  82.252  33.302  1.00  0.00    -0.307 OA
HETATM    6  C14         0      24.138  81.973  32.200  1.00  0.00     0.107 C 
HETATM    7  C15         0      23.680  81.031  31.291  1.00  0.00     0.049 C 
HETATM    8  C16         0      24.495  80.557  30.270  1.00  0.00     0.093 C 
HETATM    9  C18         0      25.522  81.414  29.893  1.00  0.00     0.048 C 
HETATM   10  C19         0      25.974  82.398  30.761  1.00  0.00     0.096 C 
HETATM   11  C21         0      25.392  82.537  31.992  1.00  0.00     0.084 C 
ENDROOT
BRANCH  10  12
HETATM   12  O20         0      27.241  82.942  30.574  1.00  0.00    -0.359 OA
HETATM   13  H20         0      27.513  83.646  31.150  1.00  0.00     0.218 HD
ENDBRANCH  10  12
BRANCH   4  14
HETATM   14  C5          0      23.538  82.552  35.680  1.00  0.00     0.025 C 
HETATM   15  C6          0      22.606  81.557  35.935  1.00  0.00     0.004 C 
HETATM   16  C7          0      22.753  80.820  37.105  1.00  0.00     0.026 C 
HETATM   17  C8          0      23.713  81.147  38.057  1.00  0.00     0.112 C 
HETATM   18  C10         0      24.136  82.469  38.023  1.00  0.00     0.112 C 
HETATM   19  C12         0      24.057  83.157  36.818  1.00  0.00     0.028 C 
BRANCH  17  20
HETATM   20  O9          0      24.325  80.164  38.814  1.00  0.00    -0.357 OA
HETATM   21  H9          0      23.859  79.437  39.211  1.00  0.00     0.218 HD
ENDBRANCH  17  20
BRANCH  18  22
HETATM   22  O11         0      24.947  82.896  39.065  1.00  0.00    -0.357 OA
HETATM   23  H11         0      25.867  83.030  38.867  1.00  0.00     0.218 HD
ENDBRANCH  18  22
ENDBRANCH   4  14
BRANCH   8  24
HETATM   24  O17         0      24.490  79.207  29.900  1.00  0.00    -0.359 OA
HETATM   25  H17         0      24.339  78.516  30.534  1.00  0.00     0.218 HD
ENDBRANCH   8  24
TORSDOF 5
ENDMDL
MODEL 3
REMARK VINA RESULT:      -0.0      6.494      9.121
REMARK  5 active torsions:
REMARK  status: ('A' for Active; 'I' for Inactive)
REMARK    1  A    between atoms: C4_4  and  C5_5 
REMARK    2  A    between atoms: C8_8  and  O9_9 
REMARK    3  A    between atoms: C10_11  and  O11_12 
REMARK    4  A    between atoms: C16_18  and  O17_19 
REMARK    5  A    between atoms: C19_22  and  O20_23 
ROOT
HETATM    1  O1          0      27.372  81.303  35.663  1.00  0.00    -0.286 OA
HETATM    2  C2          0      27.222  80.294  34.920  1.00  0.00     0.201 C 
HETATM    3  C3          0      27.054  80.389  33.549  1.00  0.00     0.067 C 
HETATM    4  C4          0      26.788  79.271  32.768  1.00  0.00     0.103 C 
HETATM    5  O13         0      26.716  78.089  33.355  1.00  0.00    -0.307 OA
HETATM    6  C14         0      26.831  77.947  34.657  1.00  0.00     0.107 C 
HETATM    7  C15         0      26.370  76.815  35.313  1.00  0.00     0.049 C 
HETATM    8  C16         0      26.260  76.777  36.698  1.00  0.00     0.093 C 
HETATM    9  C18         0      27.095  77.656  37.377  1.00  0.00     0.048 C 
HETATM   10  C19         0      27.612  78.774  36.737  1.00  0.00     0.096 C 
HETATM   11  C21         0      27.311  79.005  35.423  1.00  0.00     0.084 C 
ENDROOT
BRANCH  10  12
HETATM   12  O20         0      28.064  79.846  37.501  1.00  0.00    -0.359 OA
HETATM   13  H20         0      28.403  79.663  38.368  1.00  0.00     0.218 HD
ENDBRANCH  10  12
BRANCH   4  14
HETATM   14  C5          0      26.050  79.484  31.521  1.00  0.00     0.025 C 
HETATM   15  C6          0      25.225  78.520  30.961  1.00  0.00     0.004 C 
HETATM   16  C7          0      24.042  78.950  30.368  1.00  0.00     0.026 C 
HETATM   17  C8          0      23.752  80.302  30.215  1.00  0.00     0.112 C 
HETATM   18  C10         0      24.862  81.136  30.213  1.00  0.00     0.112 C 
HETATM   19  C12         0      26.004  80.719  30.886  1.00  0.00     0.028 C 
BRANCH  17  20
HETATM   20  O9          0      22.448  80.758  30.279  1.00  0.00    -0.357 OA
HETATM   21  H9          0      21.724  80.243  30.616  1.00  0.00     0.218 HD
ENDBRANCH  17  20
BRANCH  18  22
HETATM   22  O11         0      24.648  82.465  29.876  1.00  0.00    -0.357 OA
HETATM   23  H11         0      25.236  82.846  29.234  1.00  0.00     0.218 HD
ENDBRANCH  18  22
ENDBRANCH   4  14
BRANCH   8  24
HETATM   24  O17         0      25.172  76.162  37.327  1.00  0.00    -0.359 OA
HETATM   25  H17         0      24.429  76.663  37.641  1.00  0.00     0.218 HD
ENDBRANCH   8  24
TORSDOF 5
ENDMDL
MODEL 4
REMARK VINA RESULT:      -0.0      2.906      6.604
REMARK  5 active torsions:
REMARK  status: ('A' for Active; 'I' for Inactive)
REMARK    1  A    between atoms: C4_4  and  C5_5 
REMARK    2  A    between atoms: C8_8  and  O9_9 
REMARK    3  A    between atoms: C10_11  and  O11_12 
REMARK    4  A    between atoms: C16_18  and  O17_19 
REMARK    5  A    between atoms: C19_22  and  O20_23 
ROOT
HETATM    1  O1          0      31.197  70.854  34.703  1.00  0.00    -0.286 OA
HETATM    2  C2          0      30.004  71.131  35.008  1.00  0.00     0.201 C 
HETATM    3  C3          0      28.922  70.731  34.243  1.00  0.00     0.067 C 
HETATM    4  C4          0      27.626  71.136  34.546  1.00  0.00     0.103 C 
HETATM    5  O13         0      27.433  71.905  35.603  1.00  0.00    -0.307 OA
HETATM    6  C14         0      28.429  72.343  36.341  1.00  0.00     0.107 C 
HETATM    7  C15         0      28.290  73.440  37.179  1.00  0.00     0.049 C 
HETATM    8  C16         0      29.397  74.052  37.756  1.00  0.00     0.093 C 
HETATM    9  C18         0      30.514  73.236  37.892  1.00  0.00     0.048 C 
HETATM   10  C19         0      30.662  72.105  37.101  1.00  0.00     0.096 C 
HETATM   11  C21         0      29.692  71.780  36.193  1.00  0.00     0.084 C 
ENDROOT
BRANCH  10  12
HETATM   12  O20         0      31.929  71.558  36.926  1.00  0.00    -0.359 OA
HETATM   13  H20         0      32.003  70.758  36.421  1.00  0.00     0.218 HD
ENDBRANCH  10  12
BRANCH   4  14
HETATM   14  C5          0      26.671  71.206  33.439  1.00  0.00     0.025 C 
HETATM   15  C6          0      25.678  72.172  33.362  1.00  0.00     0.004 C 
HETATM   16  C7          0      25.386  72.698  32.108  1.00  0.00     0.026 C 
HETATM   17  C8          0      25.964  72.188  30.950  1.00  0.00     0.112 C 
HETATM   18  C10         0      26.414  70.879  31.055  1.00  0.00     0.112 C 
HETATM   19  C12         0      26.780  70.405  32.310  1.00  0.00     0.028 C 
BRANCH  17  20
HETATM   20  O9          0      26.245  73.013  29.875  1.00  0.00    -0.357 OA
HETATM   21  H9          0      25.963  72.834  28.985  1.00  0.00     0.218 HD
ENDBRANCH  17  20
BRANCH  18  22
HETATM   22  O11         0      26.825  70.259  29.884  1.00  0.00    -0.357 OA
HETATM   23  H11         0      26.633  69.333  29.797  1.00  0.00     0.218 HD
ENDBRANCH  18  22
ENDBRANCH   4  14
BRANCH   8  24
HETATM   24  O17         0      29.484  75.444  37.870  1.00  0.00    -0.359 OA
HETATM   25  H17         0      30.146  75.860  38.409  1.00  0.00     0.218 HD
ENDBRANCH   8  24
TORSDOF 5
ENDMDL
MODEL 5
REMARK VINA RESULT:      -0.0     10.469     12.889
REMARK  5 active torsions:
REMARK  status: ('A' for Active; 'I' for Inactive)
REMARK    1  A    between atoms: C4_4  and  C5_5 
REMARK    2  A    between atoms: C8_8  and  O9_9 
REMARK    3  A    between atoms: C10_11  and  O11_12 
REMARK    4  A    between atoms: C16_18  and  O17_19 
REMARK    5  A    between atoms: C19_22  and  O20_23 
ROOT
HETATM    1  O1          0      32.979  85.725  35.263  1.00  0.00    -0.286 OA
HETATM    2  C2          0      31.880  85.137  35.455  1.00  0.00     0.201 C 
HETATM    3  C3          0      31.387  84.169  34.597  1.00  0.00     0.067 C 
HETATM    4  C4          0      30.126  83.610  34.777  1.00  0.00     0.103 C 
HETATM    5  O13         0      29.398  84.005  35.806  1.00  0.00    -0.307 OA
HETATM    6  C14         0      29.803  84.947  36.629  1.00  0.00     0.107 C 
HETATM    7  C15         0      28.917  85.637  37.443  1.00  0.00     0.049 C 
HETATM    8  C16         0      29.303  86.791  38.115  1.00  0.00     0.093 C 
HETATM    9  C18         0      30.667  86.900  38.359  1.00  0.00     0.048 C 
HETATM   10  C19         0      31.579  86.187  37.593  1.00  0.00     0.096 C 
HETATM   11  C21         0      31.132  85.357  36.601  1.00  0.00     0.084 C 
ENDROOT
BRANCH  10  12
HETATM   12  O20         0      32.902  86.614  37.539  1.00  0.00    -0.359 OA
HETATM   13  H20         0      33.077  87.539  37.664  1.00  0.00     0.218 HD
ENDBRANCH  10  12
BRANCH   4  14
HETATM   14  C5          0      29.445  83.098  33.586  1.00  0.00     0.025 C 
HETATM   15  C6          0      28.064  83.005  33.492  1.00  0.00     0.004 C 
HETATM   16  C7          0      27.480  83.305  32.265  1.00  0.00     0.026 C 
HETATM   17  C8          0      28.248  83.559  31.134  1.00  0.00     0.112 C 
HETATM   18  C10         0      29.528  83.020  31.169  1.00  0.00     0.112 C 
HETATM   19  C12         0      30.121  82.809  32.408  1.00  0.00     0.028 C 
BRANCH  17  20
HETATM   20  O9          0      27.818  84.455  30.172  1.00  0.00    -0.357 OA
HETATM   21  H9          0      27.636  85.371  30.347  1.00  0.00     0.218 HD
ENDBRANCH  17  20
BRANCH  18  22
HETATM   22  O11         0      30.267  83.080  29.997  1.00  0.00    -0.357 OA
HETATM   23  H11         0      31.150  83.426  30.062  1.00  0.00     0.218 HD
ENDBRANCH  18  22
ENDBRANCH   4  14
BRANCH   8  24
HETATM   24  O17         0      28.445  87.891  38.227  1.00  0.00    -0.359 OA
HETATM   25  H17         0      27.969  88.231  37.478  1.00  0.00     0.218 HD
ENDBRANCH   8  24
TORSDOF 5
ENDMDL
MODEL 6
REMARK VINA RESULT:      -0.0      9.534     12.081
REMARK  5 active torsions:
REMARK  status: ('A' for Active; 'I' for Inactive)
REMARK    1  A    between atoms: C4_4  and  C5_5 
REMARK    2  A    between atoms: C8_8  and  O9_9 
REMARK    3  A    between atoms: C10_11  and  O11_12 
REMARK    4  A    between atoms: C16_18  and  O17_19 
REMARK    5  A    between atoms: C19_22  and  O20_23 
ROOT
HETATM    1  O1          0      30.888  83.585  36.395  1.00  0.00    -0.286 OA
HETATM    2  C2          0      31.525  83.679  35.311  1.00  0.00     0.201 C 
HETATM    3  C3          0      31.281  84.675  34.381  1.00  0.00     0.067 C 
HETATM    4  C4          0      31.926  84.696  33.149  1.00  0.00     0.103 C 
HETATM    5  O13         0      32.806  83.749  32.878  1.00  0.00    -0.307 OA
HETATM    6  C14         0      33.047  82.759  33.709  1.00  0.00     0.107 C 
HETATM    7  C15         0      33.642  81.579  33.288  1.00  0.00     0.049 C 
HETATM    8  C16         0      33.662  80.451  34.100  1.00  0.00     0.093 C 
HETATM    9  C18         0      33.564  80.707  35.462  1.00  0.00     0.048 C 
HETATM   10  C19         0      33.017  81.899  35.918  1.00  0.00     0.096 C 
HETATM   11  C21         0      32.587  82.836  35.019  1.00  0.00     0.084 C 
ENDROOT
BRANCH  10  12
HETATM   12  O20         0      32.527  81.969  37.219  1.00  0.00    -0.359 OA
HETATM   13  H20         0      32.906  82.614  37.803  1.00  0.00     0.218 HD
ENDBRANCH  10  12
BRANCH   4  14
HETATM   14  C5          0      31.230  85.351  32.040  1.00  0.00     0.025 C 
HETATM   15  C6          0      31.401  84.973  30.717  1.00  0.00     0.004 C 
HETATM   16  C7          0      30.281  84.987  29.892  1.00  0.00     0.026 C 
HETATM   17  C8          0      29.060  85.488  30.329  1.00  0.00     0.112 C 
HETATM   18  C10         0      29.147  86.390  31.382  1.00  0.00     0.112 C 
HETATM   19  C12         0      30.235  86.299  32.242  1.00  0.00     0.028 C 
BRANCH  17  20
HETATM   20  O9          0      27.869  84.950  29.875  1.00  0.00    -0.357 OA
HETATM   21  H9          0      27.116  85.472  29.621  1.00  0.00     0.218 HD
ENDBRANCH  17  20
BRANCH  18  22
HETATM   22  O11         0      27.984  87.062  31.731  1.00  0.00    -0.357 OA
HETATM   23  H11         0      27.222  86.529  31.927  1.00  0.00     0.218 HD
ENDBRANCH  18  22
ENDBRANCH   4  14
BRANCH   8  24
HETATM   24  O17         0      33.456  79.171  33.575  1.00  0.00    -0.359 OA
HETATM   25  H17         0      33.795  78.394  34.004  1.00  0.00     0.218 HD
ENDBRANCH   8  24
TORSDOF 5
ENDMDL
MODEL 7
REMARK VINA RESULT:      -0.0      6.024      7.402
REMARK  5 active torsions:
REMARK  status: ('A' for Active; 'I' for Inactive)
REMARK    1  A    between atoms: C4_4  and  C5_5 
REMARK    2  A    between atoms: C8_8  and  O9_9 
REMARK    3  A    between atoms: C10_11  and  O11_12 
REMARK    4  A    between atoms: C16_18  and  O17_19 
REMARK    5  A    between atoms: C19_22  and  O20_23 
ROOT
HETATM    1  O1          0      27.366  76.018  33.308  1.00  0.00    -0.286 OA
HETATM    2  C2          0      27.369  77.025  32.547  1.00  0.00     0.201 C 
HETATM    3  C3          0      28.156  78.139  32.781  1.00  0.00     0.067 C 
HETATM    4  C4          0      28.065  79.276  31.986  1.00  0.00     0.103 C 
HETATM    5  O13         0      27.217  79.274  30.972  1.00  0.00    -0.307 OA
HETATM    6  C14         0      26.420  78.257  30.729  1.00  0.00     0.107 C 
HETATM    7  C15         0      25.280  78.392  29.949  1.00  0.00     0.049 C 
HETATM    8  C16         0      24.315  77.394  29.904  1.00  0.00     0.093 C 
HETATM    9  C18         0      24.774  76.119  30.212  1.00  0.00     0.048 C 
HETATM   10  C19         0      25.937  75.947  30.951  1.00  0.00     0.096 C 
HETATM   11  C21         0      26.646  77.041  31.365  1.00  0.00     0.084 C 
ENDROOT
BRANCH  10  12
HETATM   12  O20         0      26.149  74.742  31.614  1.00  0.00    -0.359 OA
HETATM   13  H20         0      26.709  74.749  32.381  1.00  0.00     0.218 HD
ENDBRANCH  10  12
BRANCH   4  14
HETATM   14  C5          0      28.427  80.554  32.600  1.00  0.00     0.025 C 
HETATM   15  C6          0      27.779  81.743  32.299  1.00  0.00     0.004 C 
HETATM   16  C7          0      27.556  82.638  33.341  1.00  0.00     0.026 C 
HETATM   17  C8          0      28.078  82.422  34.612  1.00  0.00     0.112 C 
HETATM   18  C10         0      29.190  81.591  34.649  1.00  0.00     0.112 C 
HETATM   19  C12         0      29.343  80.648  33.640  1.00  0.00     0.028 C 
BRANCH  17  20
HETATM   20  O9          0      27.393  82.839  35.740  1.00  0.00    -0.357 OA
HETATM   21  H9          0      26.607  83.373  35.713  1.00  0.00     0.218 HD
ENDBRANCH  17  20
BRANCH  18  22
HETATM   22  O11         0      29.861  81.493  35.859  1.00  0.00    -0.357 OA
HETATM   23  H11         0      29.424  81.017  36.556  1.00  0.00     0.218 HD
ENDBRANCH  18  22
ENDBRANCH   4  14
BRANCH   8  24
HETATM   24  O17         0      22.949  77.700  29.887  1.00  0.00    -0.359 OA
HETATM   25  H17         0      22.320  77.149  29.437  1.00  0.00     0.218 HD
ENDBRANCH   8  24
TORSDOF 5
ENDMDL
MODEL 8
REMARK VINA RESULT:      -0.0      4.012      6.482
REMARK  5 active torsions:
REMARK  status: ('A' for Active; 'I' for Inactive)
REMARK    1  A    between atoms: C4_4  and  C5_5 
REMARK    2  A    between atoms: C8_8  and  O9_9 
REMARK    3  A    between atoms: C10_11  and  O11_12 
REMARK    4  A    between atoms: C16_18  and  O17_19 
REMARK    5  A    between atoms: C19_22  and  O20_23 
ROOT
HETATM    1  O1          0      27.620  78.841  30.323  1.00  0.00    -0.286 OA
HETATM    2  C2          0      28.052  78.170  31.300  1.00  0.00     0.201 C 
HETATM    3  C3          0      28.292  76.809  31.228  1.00  0.00     0.067 C 
HETATM    4  C4          0      28.670  76.075  32.347  1.00  0.00     0.103 C 
HETATM    5  O13         0      28.821  76.707  33.498  1.00  0.00    -0.307 OA
HETATM    6  C14         0      28.570  77.991  33.629  1.00  0.00     0.107 C 
HETATM    7  C15         0      28.337  78.567  34.870  1.00  0.00     0.049 C 
HETATM    8  C16         0      27.826  79.854  34.983  1.00  0.00     0.093 C 
HETATM    9  C18         0      28.067  80.679  33.891  1.00  0.00     0.048 C 
HETATM   10  C19         0      28.349  80.136  32.645  1.00  0.00     0.096 C 
HETATM   11  C21         0      28.408  78.778  32.494  1.00  0.00     0.084 C 
ENDROOT
BRANCH  10  12
HETATM   12  O20         0      28.158  80.912  31.506  1.00  0.00    -0.359 OA
HETATM   13  H20         0      28.773  80.811  30.790  1.00  0.00     0.218 HD
ENDBRANCH  10  12
BRANCH   4  14
HETATM   14  C5          0      28.325  74.653  32.363  1.00  0.00     0.025 C 
HETATM   15  C6          0      27.967  73.979  33.522  1.00  0.00     0.004 C 
HETATM   16  C7          0      26.959  73.024  33.428  1.00  0.00     0.026 C 
HETATM   17  C8          0      26.417  72.655  32.202  1.00  0.00     0.112 C 
HETATM   18  C10         0      27.241  72.890  31.109  1.00  0.00     0.112 C 
HETATM   19  C12         0      28.184  73.907  31.200  1.00  0.00     0.028 C 
BRANCH  17  20
HETATM   20  O9          0      25.088  72.287  32.096  1.00  0.00    -0.357 OA
HETATM   21  H9          0      24.421  72.828  31.687  1.00  0.00     0.218 HD
ENDBRANCH  17  20
BRANCH  18  22
HETATM   22  O11         0      26.831  72.370  29.889  1.00  0.00    -0.357 OA
HETATM   23  H11         0      25.964  71.983  29.856  1.00  0.00     0.218 HD
ENDBRANCH  18  22
ENDBRANCH   4  14
BRANCH   8  24
HETATM   24  O17         0      26.869  80.176  35.952  1.00  0.00    -0.359 OA
HETATM   25  H17         0      25.945  80.000  35.819  1.00  0.00     0.218 HD
ENDBRANCH   8  24
TORSDOF 5
ENDMDL
MODEL 9
REMARK VINA RESULT:      -0.0     11.516     13.689
REMARK  5 active torsions:
REMARK  status: ('A' for Active; 'I' for Inactive)
REMARK    1  A    between atoms: C4_4  and  C5_5 
REMARK    2  A    between atoms: C8_8  and  O9_9 
REMARK    3  A    between atoms: C10_11  and  O11_12 
REMARK    4  A    between atoms: C16_18  and  O17_19 
REMARK    5  A    between atoms: C19_22  and  O20_23 
ROOT
HETATM    1  O1          0      29.904  85.930  36.233  1.00  0.00    -0.286 OA
HETATM    2  C2          0      30.252  86.223  35.057  1.00  0.00     0.201 C 
HETATM    3  C3          0      29.349  86.340  34.014  1.00  0.00     0.067 C 
HETATM    4  C4          0      29.770  86.563  32.708  1.00  0.00     0.103 C 
HETATM    5  O13         0      31.063  86.685  32.469  1.00  0.00    -0.307 OA
HETATM    6  C14         0      31.965  86.545  33.416  1.00  0.00     0.107 C 
HETATM    7  C15         0      33.294  86.273  33.126  1.00  0.00     0.049 C 
HETATM    8  C16         0      34.183  85.876  34.118  1.00  0.00     0.093 C 
HETATM    9  C18         0      33.842  86.274  35.405  1.00  0.00     0.048 C 
HETATM   10  C19         0      32.530  86.599  35.718  1.00  0.00     0.096 C 
HETATM   11  C21         0      31.566  86.543  34.748  1.00  0.00     0.084 C 
ENDROOT
BRANCH  10  12
HETATM   12  O20         0      32.120  86.566  37.048  1.00  0.00    -0.359 OA
HETATM   13  H20         0      32.662  87.007  37.691  1.00  0.00     0.218 HD
ENDBRANCH  10  12
BRANCH   4  14
HETATM   14  C5          0      28.896  86.088  31.633  1.00  0.00     0.025 C 
HETATM   15  C6          0      29.383  85.575  30.440  1.00  0.00     0.004 C 
HETATM   16  C7          0      28.710  84.494  29.880  1.00  0.00     0.026 C 
HETATM   17  C8          0      27.515  84.023  30.414  1.00  0.00     0.112 C 
HETATM   18  C10         0      26.811  84.953  31.168  1.00  0.00     0.112 C 
HETATM   19  C12         0      27.521  85.975  31.787  1.00  0.00     0.028 C 
BRANCH  17  20
HETATM   20  O9          0      27.195  82.679  30.357  1.00  0.00    -0.357 OA
HETATM   21  H9          0      27.505  82.090  29.679  1.00  0.00     0.218 HD
ENDBRANCH  17  20
BRANCH  18  22
HETATM   22  O11         0      25.529  84.599  31.564  1.00  0.00    -0.357 OA
HETATM   23  H11         0      25.409  84.374  32.480  1.00  0.00     0.218 HD
ENDBRANCH  18  22
ENDBRANCH   4  14
BRANCH   8  24
HETATM   24  O17         0      35.141  84.883  33.884  1.00  0.00    -0.359 OA
HETATM   25  H17         0      36.065  85.032  34.045  1.00  0.00     0.218 HD
ENDBRANCH   8  24
TORSDOF 5
ENDMDL
