MODEL 1
REMARK VINA RESULT:      -7.1      0.000      0.000
REMARK  5 active torsions:
REMARK  status: ('A' for Active; 'I' for Inactive)
REMARK    1  A    between atoms: C4_4  and  C5_5 
REMARK    2  A    between atoms: C8_8  and  O9_9 
REMARK    3  A    between atoms: C10_11  and  O11_12 
REMARK    4  A    between atoms: C16_18  and  O17_19 
REMARK    5  A    between atoms: C19_22  and  O20_23 
ROOT
HETATM    1  O1          0      36.522  36.566   3.808  1.00  0.00    -0.286 OA
HETATM    2  C2          0      36.382  35.767   2.841  1.00  0.00     0.201 C 
HETATM    3  C3          0      35.680  36.094   1.694  1.00  0.00     0.067 C 
HETATM    4  C4          0      35.454  35.161   0.688  1.00  0.00     0.103 C 
HETATM    5  O13         0      35.942  33.942   0.831  1.00  0.00    -0.307 OA
HETATM    6  C14         0      36.583  33.569   1.917  1.00  0.00     0.107 C 
HETATM    7  C15         0      36.740  32.231   2.250  1.00  0.00     0.049 C 
HETATM    8  C16         0      37.186  31.848   3.509  1.00  0.00     0.093 C 
HETATM    9  C18         0      37.941  32.803   4.179  1.00  0.00     0.048 C 
HETATM   10  C19         0      37.843  34.145   3.841  1.00  0.00     0.096 C 
HETATM   11  C21         0      37.008  34.530   2.827  1.00  0.00     0.084 C 
ENDROOT
BRANCH  10  12
HETATM   12  O20         0      38.239  35.110   4.762  1.00  0.00    -0.359 OA
HETATM   13  H20         0      37.822  35.962   4.721  1.00  0.00     0.218 HD
ENDBRANCH  10  12
BRANCH   4  14
HETATM   14  C5          0      34.266  35.352  -0.147  1.00  0.00     0.025 C 
HETATM   15  C6          0      34.326  35.448  -1.530  1.00  0.00     0.004 C 
HETATM   16  C7          0      33.310  34.843  -2.263  1.00  0.00     0.026 C 
HETATM   17  C8          0      32.201  34.278  -1.643  1.00  0.00     0.112 C 
HETATM   18  C10         0      31.927  34.777  -0.377  1.00  0.00     0.112 C 
HETATM   19  C12         0      32.977  35.299   0.369  1.00  0.00     0.028 C 
BRANCH  17  20
HETATM   20  O9          0      31.577  33.167  -2.182  1.00  0.00    -0.357 OA
HETATM   21  H9          0      30.910  32.664  -1.729  1.00  0.00     0.218 HD
ENDBRANCH  17  20
BRANCH  18  22
HETATM   22  O11         0      30.730  34.388   0.207  1.00  0.00    -0.357 OA
HETATM   23  H11         0      29.969  34.929   0.028  1.00  0.00     0.218 HD
ENDBRANCH  18  22
ENDBRANCH   4  14
BRANCH   8  24
HETATM   24  O17         0      36.639  30.744   4.172  1.00  0.00    -0.359 OA
HETATM   25  H17         0      35.699  30.624   4.250  1.00  0.00     0.218 HD
ENDBRANCH   8  24
TORSDOF 5
ENDMDL
MODEL 2
REMARK VINA RESULT:      -6.9      1.851      6.330
REMARK  5 active torsions:
REMARK  status: ('A' for Active; 'I' for Inactive)
REMARK    1  A    between atoms: C4_4  and  C5_5 
REMARK    2  A    between atoms: C8_8  and  O9_9 
REMARK    3  A    between atoms: C10_11  and  O11_12 
REMARK    4  A    between atoms: C16_18  and  O17_19 
REMARK    5  A    between atoms: C19_22  and  O20_23 
ROOT
HETATM    1  O1          0      36.589  36.551  -1.598  1.00  0.00    -0.286 OA
HETATM    2  C2          0      35.833  36.336  -0.611  1.00  0.00     0.201 C 
HETATM    3  C3          0      36.285  36.354   0.698  1.00  0.00     0.067 C 
HETATM    4  C4          0      35.455  36.013   1.760  1.00  0.00     0.103 C 
HETATM    5  O13         0      34.201  35.684   1.505  1.00  0.00    -0.307 OA
HETATM    6  C14         0      33.732  35.614   0.278  1.00  0.00     0.107 C 
HETATM    7  C15         0      32.580  34.902  -0.024  1.00  0.00     0.049 C 
HETATM    8  C16         0      32.231  34.619  -1.339  1.00  0.00     0.093 C 
HETATM    9  C18         0      32.752  35.492  -2.286  1.00  0.00     0.048 C 
HETATM   10  C19         0      33.877  36.254  -2.000  1.00  0.00     0.096 C 
HETATM   11  C21         0      34.467  36.157  -0.769  1.00  0.00     0.084 C 
ENDROOT
BRANCH  10  12
HETATM   12  O20         0      34.632  36.772  -3.047  1.00  0.00    -0.359 OA
HETATM   13  H20         0      34.745  36.236  -3.823  1.00  0.00     0.218 HD
ENDBRANCH  10  12
BRANCH   4  14
HETATM   14  C5          0      36.093  35.478   2.964  1.00  0.00     0.025 C 
HETATM   15  C6          0      35.447  35.407   4.189  1.00  0.00     0.004 C 
HETATM   16  C7          0      35.686  34.288   4.980  1.00  0.00     0.026 C 
HETATM   17  C8          0      36.636  33.335   4.628  1.00  0.00     0.112 C 
HETATM   18  C10         0      37.631  33.796   3.776  1.00  0.00     0.112 C 
HETATM   19  C12         0      37.338  34.863   2.935  1.00  0.00     0.028 C 
BRANCH  17  20
HETATM   20  O9          0      36.454  32.001   4.945  1.00  0.00    -0.357 OA
HETATM   21  H9          0      35.942  31.398   4.418  1.00  0.00     0.218 HD
ENDBRANCH  17  20
BRANCH  18  22
HETATM   22  O11         0      38.704  32.947   3.545  1.00  0.00    -0.357 OA
HETATM   23  H11         0      38.501  32.033   3.380  1.00  0.00     0.218 HD
ENDBRANCH  18  22
ENDBRANCH   4  14
BRANCH   8  24
HETATM   24  O17         0      31.694  33.378  -1.700  1.00  0.00    -0.359 OA
HETATM   25  H17         0      31.741  33.054  -2.591  1.00  0.00     0.218 HD
ENDBRANCH   8  24
TORSDOF 5
ENDMDL
MODEL 3
REMARK VINA RESULT:      -6.9      2.090      6.703
REMARK  5 active torsions:
REMARK  status: ('A' for Active; 'I' for Inactive)
REMARK    1  A    between atoms: C4_4  and  C5_5 
REMARK    2  A    between atoms: C8_8  and  O9_9 
REMARK    3  A    between atoms: C10_11  and  O11_12 
REMARK    4  A    between atoms: C16_18  and  O17_19 
REMARK    5  A    between atoms: C19_22  and  O20_23 
ROOT
HETATM    1  O1          0      36.547  34.290  -0.501  1.00  0.00    -0.286 OA
HETATM    2  C2          0      35.852  34.983   0.291  1.00  0.00     0.201 C 
HETATM    3  C3          0      36.330  35.436   1.510  1.00  0.00     0.067 C 
HETATM    4  C4          0      35.511  36.110   2.408  1.00  0.00     0.103 C 
HETATM    5  O13         0      34.253  36.336   2.074  1.00  0.00    -0.307 OA
HETATM    6  C14         0      33.739  35.896   0.946  1.00  0.00     0.107 C 
HETATM    7  C15         0      32.369  35.773   0.766  1.00  0.00     0.049 C 
HETATM    8  C16         0      31.842  35.076  -0.315  1.00  0.00     0.093 C 
HETATM    9  C18         0      32.678  34.992  -1.422  1.00  0.00     0.048 C 
HETATM   10  C19         0      34.050  35.156  -1.285  1.00  0.00     0.096 C 
HETATM   11  C21         0      34.582  35.420  -0.052  1.00  0.00     0.084 C 
ENDROOT
BRANCH  10  12
HETATM   12  O20         0      34.897  34.653  -2.267  1.00  0.00    -0.359 OA
HETATM   13  H20         0      35.023  33.713  -2.307  1.00  0.00     0.218 HD
ENDBRANCH  10  12
BRANCH   4  14
HETATM   14  C5          0      35.857  36.019   3.828  1.00  0.00     0.025 C 
HETATM   15  C6          0      35.715  34.852   4.564  1.00  0.00     0.004 C 
HETATM   16  C7          0      36.696  34.560   5.506  1.00  0.00     0.026 C 
HETATM   17  C8          0      37.712  35.461   5.803  1.00  0.00     0.112 C 
HETATM   18  C10         0      37.416  36.786   5.511  1.00  0.00     0.112 C 
HETATM   19  C12         0      36.494  37.050   4.506  1.00  0.00     0.028 C 
BRANCH  17  20
HETATM   20  O9          0      38.973  35.015   6.157  1.00  0.00    -0.357 OA
HETATM   21  H9          0      39.307  35.027   7.047  1.00  0.00     0.218 HD
ENDBRANCH  17  20
BRANCH  18  22
HETATM   22  O11         0      38.314  37.744   5.960  1.00  0.00    -0.357 OA
HETATM   23  H11         0      38.286  38.593   5.534  1.00  0.00     0.218 HD
ENDBRANCH  18  22
ENDBRANCH   4  14
BRANCH   8  24
HETATM   24  O17         0      30.723  34.249  -0.174  1.00  0.00    -0.359 OA
HETATM   25  H17         0      30.805  33.333   0.065  1.00  0.00     0.218 HD
ENDBRANCH   8  24
TORSDOF 5
ENDMDL
MODEL 4
REMARK VINA RESULT:      -6.6     11.437     12.746
REMARK  5 active torsions:
REMARK  status: ('A' for Active; 'I' for Inactive)
REMARK    1  A    between atoms: C4_4  and  C5_5 
REMARK    2  A    between atoms: C8_8  and  O9_9 
REMARK    3  A    between atoms: C10_11  and  O11_12 
REMARK    4  A    between atoms: C16_18  and  O17_19 
REMARK    5  A    between atoms: C19_22  and  O20_23 
ROOT
HETATM    1  O1          0      38.241  47.179   5.332  1.00  0.00    -0.286 OA
HETATM    2  C2          0      37.718  46.519   4.392  1.00  0.00     0.201 C 
HETATM    3  C3          0      38.426  46.121   3.271  1.00  0.00     0.067 C 
HETATM    4  C4          0      37.802  45.484   2.204  1.00  0.00     0.103 C 
HETATM    5  O13         0      36.506  45.239   2.280  1.00  0.00    -0.307 OA
HETATM    6  C14         0      35.780  45.629   3.305  1.00  0.00     0.107 C 
HETATM    7  C15         0      34.400  45.740   3.224  1.00  0.00     0.049 C 
HETATM    8  C16         0      33.668  46.388   4.211  1.00  0.00     0.093 C 
HETATM    9  C18         0      34.274  46.426   5.461  1.00  0.00     0.048 C 
HETATM   10  C19         0      35.649  46.272   5.584  1.00  0.00     0.096 C 
HETATM   11  C21         0      36.411  46.063   4.466  1.00  0.00     0.084 C 
ENDROOT
BRANCH  10  12
HETATM   12  O20         0      36.286  46.734   6.731  1.00  0.00    -0.359 OA
HETATM   13  H20         0      36.964  46.191   7.113  1.00  0.00     0.218 HD
ENDBRANCH  10  12
BRANCH   4  14
HETATM   14  C5          0      38.414  45.637   0.882  1.00  0.00     0.025 C 
HETATM   15  C6          0      38.723  44.558   0.067  1.00  0.00     0.004 C 
HETATM   16  C7          0      38.517  44.703  -1.301  1.00  0.00     0.026 C 
HETATM   17  C8          0      38.143  45.922  -1.857  1.00  0.00     0.112 C 
HETATM   18  C10         0      38.474  47.033  -1.093  1.00  0.00     0.112 C 
HETATM   19  C12         0      38.591  46.878   0.283  1.00  0.00     0.028 C 
BRANCH  17  20
HETATM   20  O9          0      37.325  45.971  -2.971  1.00  0.00    -0.357 OA
HETATM   21  H9          0      36.378  45.897  -2.934  1.00  0.00     0.218 HD
ENDBRANCH  17  20
BRANCH  18  22
HETATM   22  O11         0      38.296  48.277  -1.683  1.00  0.00    -0.357 OA
HETATM   23  H11         0      37.561  48.369  -2.278  1.00  0.00     0.218 HD
ENDBRANCH  18  22
ENDBRANCH   4  14
BRANCH   8  24
HETATM   24  O17         0      32.587  47.217   3.893  1.00  0.00    -0.359 OA
HETATM   25  H17         0      32.512  47.636   3.043  1.00  0.00     0.218 HD
ENDBRANCH   8  24
TORSDOF 5
ENDMDL
MODEL 5
REMARK VINA RESULT:      -6.5     11.291     13.041
REMARK  5 active torsions:
REMARK  status: ('A' for Active; 'I' for Inactive)
REMARK    1  A    between atoms: C4_4  and  C5_5 
REMARK    2  A    between atoms: C8_8  and  O9_9 
REMARK    3  A    between atoms: C10_11  and  O11_12 
REMARK    4  A    between atoms: C16_18  and  O17_19 
REMARK    5  A    between atoms: C19_22  and  O20_23 
ROOT
HETATM    1  O1          0      38.228  45.250   7.059  1.00  0.00    -0.286 OA
HETATM    2  C2          0      37.332  45.490   6.204  1.00  0.00     0.201 C 
HETATM    3  C3          0      37.484  45.207   4.858  1.00  0.00     0.067 C 
HETATM    4  C4          0      36.524  45.575   3.923  1.00  0.00     0.103 C 
HETATM    5  O13         0      35.433  46.193   4.342  1.00  0.00    -0.307 OA
HETATM    6  C14         0      35.256  46.519   5.604  1.00  0.00     0.107 C 
HETATM    7  C15         0      34.343  47.491   5.986  1.00  0.00     0.049 C 
HETATM    8  C16         0      34.340  48.011   7.275  1.00  0.00     0.093 C 
HETATM    9  C18         0      34.883  47.177   8.245  1.00  0.00     0.048 C 
HETATM   10  C19         0      35.763  46.164   7.892  1.00  0.00     0.096 C 
HETATM   11  C21         0      36.087  45.973   6.577  1.00  0.00     0.084 C 
ENDROOT
BRANCH  10  12
HETATM   12  O20         0      36.617  45.638   8.857  1.00  0.00    -0.359 OA
HETATM   13  H20         0      36.234  45.135   9.565  1.00  0.00     0.218 HD
ENDBRANCH  10  12
BRANCH   4  14
HETATM   14  C5          0      36.978  45.802   2.550  1.00  0.00     0.025 C 
HETATM   15  C6          0      37.410  44.777   1.721  1.00  0.00     0.004 C 
HETATM   16  C7          0      37.061  44.845   0.376  1.00  0.00     0.026 C 
HETATM   17  C8          0      36.421  45.959  -0.156  1.00  0.00     0.112 C 
HETATM   18  C10         0      36.606  47.132   0.563  1.00  0.00     0.112 C 
HETATM   19  C12         0      36.869  47.038   1.924  1.00  0.00     0.028 C 
BRANCH  17  20
HETATM   20  O9          0      35.513  45.827  -1.192  1.00  0.00    -0.357 OA
HETATM   21  H9          0      34.791  46.427  -1.341  1.00  0.00     0.218 HD
ENDBRANCH  17  20
BRANCH  18  22
HETATM   22  O11         0      36.150  48.305  -0.021  1.00  0.00    -0.357 OA
HETATM   23  H11         0      35.252  48.310  -0.334  1.00  0.00     0.218 HD
ENDBRANCH  18  22
ENDBRANCH   4  14
BRANCH   8  24
HETATM   24  O17         0      34.126  49.373   7.512  1.00  0.00    -0.359 OA
HETATM   25  H17         0      33.725  49.683   8.315  1.00  0.00     0.218 HD
ENDBRANCH   8  24
TORSDOF 5
ENDMDL
MODEL 6
REMARK VINA RESULT:      -6.2     12.025     14.068
REMARK  5 active torsions:
REMARK  status: ('A' for Active; 'I' for Inactive)
REMARK    1  A    between atoms: C4_4  and  C5_5 
REMARK    2  A    between atoms: C8_8  and  O9_9 
REMARK    3  A    between atoms: C10_11  and  O11_12 
REMARK    4  A    between atoms: C16_18  and  O17_19 
REMARK    5  A    between atoms: C19_22  and  O20_23 
ROOT
HETATM    1  O1          0      34.711  49.475   1.278  1.00  0.00    -0.286 OA
HETATM    2  C2          0      35.889  49.080   1.502  1.00  0.00     0.201 C 
HETATM    3  C3          0      36.784  48.776   0.491  1.00  0.00     0.067 C 
HETATM    4  C4          0      38.039  48.246   0.765  1.00  0.00     0.103 C 
HETATM    5  O13         0      38.385  48.051   2.025  1.00  0.00    -0.307 OA
HETATM    6  C14         0      37.560  48.288   3.021  1.00  0.00     0.107 C 
HETATM    7  C15         0      37.748  47.727   4.276  1.00  0.00     0.049 C 
HETATM    8  C16         0      36.751  47.770   5.243  1.00  0.00     0.093 C 
HETATM    9  C18         0      35.838  48.807   5.099  1.00  0.00     0.048 C 
HETATM   10  C19         0      35.658  49.423   3.867  1.00  0.00     0.096 C 
HETATM   11  C21         0      36.397  49.016   2.790  1.00  0.00     0.084 C 
ENDROOT
BRANCH  10  12
HETATM   12  O20         0      34.482  50.125   3.623  1.00  0.00    -0.359 OA
HETATM   13  H20         0      34.320  50.427   2.738  1.00  0.00     0.218 HD
ENDBRANCH  10  12
BRANCH   4  14
HETATM   14  C5          0      38.657  47.417  -0.272  1.00  0.00     0.025 C 
HETATM   15  C6          0      39.732  46.577  -0.021  1.00  0.00     0.004 C 
HETATM   16  C7          0      39.752  45.345  -0.668  1.00  0.00     0.026 C 
HETATM   17  C8          0      38.808  45.012  -1.633  1.00  0.00     0.112 C 
HETATM   18  C10         0      38.201  46.098  -2.249  1.00  0.00     0.112 C 
HETATM   19  C12         0      38.119  47.295  -1.546  1.00  0.00     0.028 C 
BRANCH  17  20
HETATM   20  O9          0      38.381  43.705  -1.786  1.00  0.00    -0.357 OA
HETATM   21  H9          0      38.554  43.016  -1.154  1.00  0.00     0.218 HD
ENDBRANCH  17  20
BRANCH  18  22
HETATM   22  O11         0      37.393  45.829  -3.345  1.00  0.00    -0.357 OA
HETATM   23  H11         0      37.825  45.746  -4.187  1.00  0.00     0.218 HD
ENDBRANCH  18  22
ENDBRANCH   4  14
BRANCH   8  24
HETATM   24  O17         0      36.495  46.674   6.075  1.00  0.00    -0.359 OA
HETATM   25  H17         0      35.642  46.537   6.471  1.00  0.00     0.218 HD
ENDBRANCH   8  24
TORSDOF 5
ENDMDL
MODEL 7
REMARK VINA RESULT:      -6.1     11.898     13.762
REMARK  5 active torsions:
REMARK  status: ('A' for Active; 'I' for Inactive)
REMARK    1  A    between atoms: C4_4  and  C5_5 
REMARK    2  A    between atoms: C8_8  and  O9_9 
REMARK    3  A    between atoms: C10_11  and  O11_12 
REMARK    4  A    between atoms: C16_18  and  O17_19 
REMARK    5  A    between atoms: C19_22  and  O20_23 
ROOT
HETATM    1  O1          0      37.312  49.859   0.071  1.00  0.00    -0.286 OA
HETATM    2  C2          0      36.743  48.851   0.575  1.00  0.00     0.201 C 
HETATM    3  C3          0      35.579  48.941   1.319  1.00  0.00     0.067 C 
HETATM    4  C4          0      35.030  47.829   1.950  1.00  0.00     0.103 C 
HETATM    5  O13         0      35.631  46.661   1.813  1.00  0.00    -0.307 OA
HETATM    6  C14         0      36.759  46.528   1.149  1.00  0.00     0.107 C 
HETATM    7  C15         0      37.589  45.431   1.330  1.00  0.00     0.049 C 
HETATM    8  C16         0      38.884  45.415   0.828  1.00  0.00     0.093 C 
HETATM    9  C18         0      39.102  46.253  -0.259  1.00  0.00     0.048 C 
HETATM   10  C19         0      38.263  47.333  -0.497  1.00  0.00     0.096 C 
HETATM   11  C21         0      37.203  47.565   0.336  1.00  0.00     0.084 C 
ENDROOT
BRANCH  10  12
HETATM   12  O20         0      38.717  48.387  -1.284  1.00  0.00    -0.359 OA
HETATM   13  H20         0      39.619  48.365  -1.580  1.00  0.00     0.218 HD
ENDBRANCH  10  12
BRANCH   4  14
HETATM   14  C5          0      34.221  48.070   3.145  1.00  0.00     0.025 C 
HETATM   15  C6          0      33.257  49.066   3.213  1.00  0.00     0.004 C 
HETATM   16  C7          0      32.081  48.780   3.899  1.00  0.00     0.026 C 
HETATM   17  C8          0      31.921  47.594   4.608  1.00  0.00     0.112 C 
HETATM   18  C10         0      33.107  46.988   5.001  1.00  0.00     0.112 C 
HETATM   19  C12         0      34.250  47.224   4.247  1.00  0.00     0.028 C 
BRANCH  17  20
HETATM   20  O9          0      30.680  46.991   4.708  1.00  0.00    -0.357 OA
HETATM   21  H9          0      30.298  46.452   4.024  1.00  0.00     0.218 HD
ENDBRANCH  17  20
BRANCH  18  22
HETATM   22  O11         0      33.004  45.910   5.868  1.00  0.00    -0.357 OA
HETATM   23  H11         0      32.253  45.895   6.450  1.00  0.00     0.218 HD
ENDBRANCH  18  22
ENDBRANCH   4  14
BRANCH   8  24
HETATM   24  O17         0      39.944  44.870   1.561  1.00  0.00    -0.359 OA
HETATM   25  H17         0      40.849  45.013   1.311  1.00  0.00     0.218 HD
ENDBRANCH   8  24
TORSDOF 5
ENDMDL
MODEL 8
REMARK VINA RESULT:      -6.1      2.194      3.656
REMARK  5 active torsions:
REMARK  status: ('A' for Active; 'I' for Inactive)
REMARK    1  A    between atoms: C4_4  and  C5_5 
REMARK    2  A    between atoms: C8_8  and  O9_9 
REMARK    3  A    between atoms: C10_11  and  O11_12 
REMARK    4  A    between atoms: C16_18  and  O17_19 
REMARK    5  A    between atoms: C19_22  and  O20_23 
ROOT
HETATM    1  O1          0      38.404  32.313   2.434  1.00  0.00    -0.286 OA
HETATM    2  C2          0      37.436  33.083   2.183  1.00  0.00     0.201 C 
HETATM    3  C3          0      36.762  33.072   0.973  1.00  0.00     0.067 C 
HETATM    4  C4          0      35.768  33.999   0.685  1.00  0.00     0.103 C 
HETATM    5  O13         0      35.451  34.896   1.602  1.00  0.00    -0.307 OA
HETATM    6  C14         0      36.085  34.975   2.751  1.00  0.00     0.107 C 
HETATM    7  C15         0      36.046  36.122   3.531  1.00  0.00     0.049 C 
HETATM    8  C16         0      36.911  36.294   4.605  1.00  0.00     0.093 C 
HETATM    9  C18         0      37.398  35.117   5.161  1.00  0.00     0.048 C 
HETATM   10  C19         0      37.408  33.940   4.425  1.00  0.00     0.096 C 
HETATM   11  C21         0      36.919  33.935   3.147  1.00  0.00     0.084 C 
ENDROOT
BRANCH  10  12
HETATM   12  O20         0      38.265  32.911   4.800  1.00  0.00    -0.359 OA
HETATM   13  H20         0      38.507  32.844   5.716  1.00  0.00     0.218 HD
ENDBRANCH  10  12
BRANCH   4  14
HETATM   14  C5          0      35.542  34.323  -0.725  1.00  0.00     0.025 C 
HETATM   15  C6          0      34.336  34.083  -1.368  1.00  0.00     0.004 C 
HETATM   16  C7          0      33.898  35.029  -2.289  1.00  0.00     0.026 C 
HETATM   17  C8          0      34.692  36.109  -2.660  1.00  0.00     0.112 C 
HETATM   18  C10         0      36.055  35.918  -2.470  1.00  0.00     0.112 C 
HETATM   19  C12         0      36.466  35.030  -1.484  1.00  0.00     0.028 C 
BRANCH  17  20
HETATM   20  O9          0      34.125  37.328  -2.984  1.00  0.00    -0.357 OA
HETATM   21  H9          0      33.189  37.470  -3.063  1.00  0.00     0.218 HD
ENDBRANCH  17  20
BRANCH  18  22
HETATM   22  O11         0      36.903  36.882  -2.995  1.00  0.00    -0.357 OA
HETATM   23  H11         0      37.773  36.942  -2.617  1.00  0.00     0.218 HD
ENDBRANCH  18  22
ENDBRANCH   4  14
BRANCH   8  24
HETATM   24  O17         0      37.500  37.534   4.875  1.00  0.00    -0.359 OA
HETATM   25  H17         0      36.999  38.341   4.850  1.00  0.00     0.218 HD
ENDBRANCH   8  24
TORSDOF 5
ENDMDL
MODEL 9
REMARK VINA RESULT:      -6.1      2.324      3.187
REMARK  5 active torsions:
REMARK  status: ('A' for Active; 'I' for Inactive)
REMARK    1  A    between atoms: C4_4  and  C5_5 
REMARK    2  A    between atoms: C8_8  and  O9_9 
REMARK    3  A    between atoms: C10_11  and  O11_12 
REMARK    4  A    between atoms: C16_18  and  O17_19 
REMARK    5  A    between atoms: C19_22  and  O20_23 
ROOT
HETATM    1  O1          0      37.936  34.869   3.745  1.00  0.00    -0.286 OA
HETATM    2  C2          0      37.658  34.023   2.852  1.00  0.00     0.201 C 
HETATM    3  C3          0      37.583  34.348   1.508  1.00  0.00     0.067 C 
HETATM    4  C4          0      37.175  33.421   0.556  1.00  0.00     0.103 C 
HETATM    5  O13         0      36.873  32.197   0.951  1.00  0.00    -0.307 OA
HETATM    6  C14         0      36.891  31.847   2.218  1.00  0.00     0.107 C 
HETATM    7  C15         0      36.210  30.729   2.677  1.00  0.00     0.049 C 
HETATM    8  C16         0      36.020  30.507   4.036  1.00  0.00     0.093 C 
HETATM    9  C18         0      36.953  31.116   4.866  1.00  0.00     0.048 C 
HETATM   10  C19         0      37.686  32.208   4.422  1.00  0.00     0.096 C 
HETATM   11  C21         0      37.500  32.679   3.151  1.00  0.00     0.084 C 
ENDROOT
BRANCH  10  12
HETATM   12  O20         0      38.270  33.060   5.355  1.00  0.00    -0.359 OA
HETATM   13  H20         0      37.760  33.801   5.661  1.00  0.00     0.218 HD
ENDBRANCH  10  12
BRANCH   4  14
HETATM   14  C5          0      36.554  33.942  -0.663  1.00  0.00     0.025 C 
HETATM   15  C6          0      35.207  33.775  -0.951  1.00  0.00     0.004 C 
HETATM   16  C7          0      34.541  34.837  -1.556  1.00  0.00     0.026 C 
HETATM   17  C8          0      35.218  35.974  -1.983  1.00  0.00     0.112 C 
HETATM   18  C10         0      36.571  35.785  -2.231  1.00  0.00     0.112 C 
HETATM   19  C12         0      37.232  34.770  -1.549  1.00  0.00     0.028 C 
BRANCH  17  20
HETATM   20  O9          0      34.610  37.216  -1.946  1.00  0.00    -0.357 OA
HETATM   21  H9          0      34.343  37.649  -1.143  1.00  0.00     0.218 HD
ENDBRANCH  17  20
BRANCH  18  22
HETATM   22  O11         0      37.251  36.832  -2.837  1.00  0.00    -0.357 OA
HETATM   23  H11         0      36.763  37.634  -2.983  1.00  0.00     0.218 HD
ENDBRANCH  18  22
ENDBRANCH   4  14
BRANCH   8  24
HETATM   24  O17         0      34.810  30.006   4.531  1.00  0.00    -0.359 OA
HETATM   25  H17         0      34.104  30.582   4.800  1.00  0.00     0.218 HD
ENDBRANCH   8  24
TORSDOF 5
ENDMDL
