MODEL 1
REMARK VINA RESULT:      -5.1      0.000      0.000
REMARK  5 active torsions:
REMARK  status: ('A' for Active; 'I' for Inactive)
REMARK    1  A    between atoms: C4_4  and  C5_5 
REMARK    2  A    between atoms: C8_8  and  O9_9 
REMARK    3  A    between atoms: C10_11  and  O11_12 
REMARK    4  A    between atoms: C16_18  and  O17_19 
REMARK    5  A    between atoms: C19_22  and  O20_23 
ROOT
HETATM    1  O1          0      57.417   6.359  33.993  1.00  0.00    -0.286 OA
HETATM    2  C2          0      58.456   6.267  33.284  1.00  0.00     0.201 C 
HETATM    3  C3          0      58.939   5.057  32.814  1.00  0.00     0.067 C 
HETATM    4  C4          0      60.141   4.972  32.122  1.00  0.00     0.103 C 
HETATM    5  O13         0      60.823   6.082  31.894  1.00  0.00    -0.307 OA
HETATM    6  C14         0      60.428   7.250  32.351  1.00  0.00     0.107 C 
HETATM    7  C15         0      61.302   8.321  32.470  1.00  0.00     0.049 C 
HETATM    8  C16         0      60.953   9.462  33.182  1.00  0.00     0.093 C 
HETATM    9  C18         0      59.587   9.692  33.288  1.00  0.00     0.048 C 
HETATM   10  C19         0      58.681   8.652  33.128  1.00  0.00     0.096 C 
HETATM   11  C21         0      59.137   7.393  32.847  1.00  0.00     0.084 C 
ENDROOT
BRANCH  10  12
HETATM   12  O20         0      57.398   8.780  33.651  1.00  0.00    -0.359 OA
HETATM   13  H20         0      57.279   8.625  34.580  1.00  0.00     0.218 HD
ENDBRANCH  10  12
BRANCH   4  14
HETATM   14  C5          0      60.865   3.702  32.191  1.00  0.00     0.025 C 
HETATM   15  C6          0      61.184   2.956  31.066  1.00  0.00     0.004 C 
HETATM   16  C7          0      62.421   2.319  31.044  1.00  0.00     0.026 C 
HETATM   17  C8          0      63.257   2.310  32.155  1.00  0.00     0.112 C 
HETATM   18  C10         0      62.611   2.509  33.368  1.00  0.00     0.112 C 
HETATM   19  C12         0      61.419   3.224  33.372  1.00  0.00     0.028 C 
BRANCH  17  20
HETATM   20  O9          0      64.632   2.316  32.007  1.00  0.00    -0.357 OA
HETATM   21  H9          0      65.235   1.981  32.662  1.00  0.00     0.218 HD
ENDBRANCH  17  20
BRANCH  18  22
HETATM   22  O11         0      63.363   2.323  34.519  1.00  0.00    -0.357 OA
HETATM   23  H11         0      64.178   1.842  34.427  1.00  0.00     0.218 HD
ENDBRANCH  18  22
ENDBRANCH   4  14
BRANCH   8  24
HETATM   24  O17         0      61.876  10.122  34.001  1.00  0.00    -0.359 OA
HETATM   25  H17         0      62.469  10.779  33.657  1.00  0.00     0.218 HD
ENDBRANCH   8  24
TORSDOF 5
ENDMDL
MODEL 2
REMARK VINA RESULT:      -5.0      7.980     10.196
REMARK  5 active torsions:
REMARK  status: ('A' for Active; 'I' for Inactive)
REMARK    1  A    between atoms: C4_4  and  C5_5 
REMARK    2  A    between atoms: C8_8  and  O9_9 
REMARK    3  A    between atoms: C10_11  and  O11_12 
REMARK    4  A    between atoms: C16_18  and  O17_19 
REMARK    5  A    between atoms: C19_22  and  O20_23 
ROOT
HETATM    1  O1          0      69.904   2.920  41.112  1.00  0.00    -0.286 OA
HETATM    2  C2          0      69.052   3.486  40.373  1.00  0.00     0.201 C 
HETATM    3  C3          0      68.385   2.825  39.356  1.00  0.00     0.067 C 
HETATM    4  C4          0      67.528   3.496  38.491  1.00  0.00     0.103 C 
HETATM    5  O13         0      67.338   4.792  38.665  1.00  0.00    -0.307 OA
HETATM    6  C14         0      67.975   5.474  39.591  1.00  0.00     0.107 C 
HETATM    7  C15         0      68.094   6.855  39.530  1.00  0.00     0.049 C 
HETATM    8  C16         0      68.973   7.541  40.359  1.00  0.00     0.093 C 
HETATM    9  C18         0      69.292   6.889  41.544  1.00  0.00     0.048 C 
HETATM   10  C19         0      69.140   5.513  41.655  1.00  0.00     0.096 C 
HETATM   11  C21         0      68.657   4.796  40.595  1.00  0.00     0.084 C 
ENDROOT
BRANCH  10  12
HETATM   12  O20         0      69.846   4.828  42.639  1.00  0.00    -0.359 OA
HETATM   13  H20         0      70.443   4.143  42.363  1.00  0.00     0.218 HD
ENDBRANCH  10  12
BRANCH   4  14
HETATM   14  C5          0      67.351   2.932  37.151  1.00  0.00     0.025 C 
HETATM   15  C6          0      67.498   1.579  36.880  1.00  0.00     0.004 C 
HETATM   16  C7          0      66.620   1.006  35.966  1.00  0.00     0.026 C 
HETATM   17  C8          0      65.714   1.775  35.244  1.00  0.00     0.112 C 
HETATM   18  C10         0      66.066   3.112  35.109  1.00  0.00     0.112 C 
HETATM   19  C12         0      66.876   3.682  36.084  1.00  0.00     0.028 C 
BRANCH  17  20
HETATM   20  O9          0      64.476   1.268  34.890  1.00  0.00    -0.357 OA
HETATM   21  H9          0      63.695   1.361  35.423  1.00  0.00     0.218 HD
ENDBRANCH  17  20
BRANCH  18  22
HETATM   22  O11         0      65.300   3.879  34.244  1.00  0.00    -0.357 OA
HETATM   23  H11         0      65.561   4.786  34.127  1.00  0.00     0.218 HD
ENDBRANCH  18  22
ENDBRANCH   4  14
BRANCH   8  24
HETATM   24  O17         0      69.728   8.621  39.888  1.00  0.00    -0.359 OA
HETATM   25  H17         0      70.515   8.493  39.373  1.00  0.00     0.218 HD
ENDBRANCH   8  24
TORSDOF 5
ENDMDL
MODEL 3
REMARK VINA RESULT:      -4.9      3.296      6.856
REMARK  5 active torsions:
REMARK  status: ('A' for Active; 'I' for Inactive)
REMARK    1  A    between atoms: C4_4  and  C5_5 
REMARK    2  A    between atoms: C8_8  and  O9_9 
REMARK    3  A    between atoms: C10_11  and  O11_12 
REMARK    4  A    between atoms: C16_18  and  O17_19 
REMARK    5  A    between atoms: C19_22  and  O20_23 
ROOT
HETATM    1  O1          0      58.845   4.620  31.127  1.00  0.00    -0.286 OA
HETATM    2  C2          0      58.426   5.519  31.907  1.00  0.00     0.201 C 
HETATM    3  C3          0      57.089   5.665  32.233  1.00  0.00     0.067 C 
HETATM    4  C4          0      56.641   6.725  33.013  1.00  0.00     0.103 C 
HETATM    5  O13         0      57.524   7.599  33.465  1.00  0.00    -0.307 OA
HETATM    6  C14         0      58.799   7.527  33.153  1.00  0.00     0.107 C 
HETATM    7  C15         0      59.644   8.622  33.276  1.00  0.00     0.049 C 
HETATM    8  C16         0      60.914   8.619  32.713  1.00  0.00     0.093 C 
HETATM    9  C18         0      61.467   7.360  32.518  1.00  0.00     0.048 C 
HETATM   10  C19         0      60.655   6.237  32.437  1.00  0.00     0.096 C 
HETATM   11  C21         0      59.299   6.369  32.568  1.00  0.00     0.084 C 
ENDROOT
BRANCH  10  12
HETATM   12  O20         0      61.142   5.087  31.823  1.00  0.00    -0.359 OA
HETATM   13  H20         0      60.840   4.889  30.945  1.00  0.00     0.218 HD
ENDBRANCH  10  12
BRANCH   4  14
HETATM   14  C5          0      55.255   7.159  32.822  1.00  0.00     0.025 C 
HETATM   15  C6          0      54.447   6.668  31.807  1.00  0.00     0.004 C 
HETATM   16  C7          0      53.106   6.443  32.102  1.00  0.00     0.026 C 
HETATM   17  C8          0      52.555   6.818  33.322  1.00  0.00     0.112 C 
HETATM   18  C10         0      53.241   7.831  33.981  1.00  0.00     0.112 C 
HETATM   19  C12         0      54.600   7.979  33.731  1.00  0.00     0.028 C 
BRANCH  17  20
HETATM   20  O9          0      51.538   6.079  33.898  1.00  0.00    -0.357 OA
HETATM   21  H9          0      50.704   5.909  33.475  1.00  0.00     0.218 HD
ENDBRANCH  17  20
BRANCH  18  22
HETATM   22  O11         0      52.633   8.372  35.105  1.00  0.00    -0.357 OA
HETATM   23  H11         0      51.942   7.861  35.509  1.00  0.00     0.218 HD
ENDBRANCH  18  22
ENDBRANCH   4  14
BRANCH   8  24
HETATM   24  O17         0      61.437   9.757  32.089  1.00  0.00    -0.359 OA
HETATM   25  H17         0      61.986   9.695  31.317  1.00  0.00     0.218 HD
ENDBRANCH   8  24
TORSDOF 5
ENDMDL
MODEL 4
REMARK VINA RESULT:      -4.8      6.688      8.584
REMARK  5 active torsions:
REMARK  status: ('A' for Active; 'I' for Inactive)
REMARK    1  A    between atoms: C4_4  and  C5_5 
REMARK    2  A    between atoms: C8_8  and  O9_9 
REMARK    3  A    between atoms: C10_11  and  O11_12 
REMARK    4  A    between atoms: C16_18  and  O17_19 
REMARK    5  A    between atoms: C19_22  and  O20_23 
ROOT
HETATM    1  O1          0      69.287   4.651  39.712  1.00  0.00    -0.286 OA
HETATM    2  C2          0      68.206   4.976  39.148  1.00  0.00     0.201 C 
HETATM    3  C3          0      67.327   4.047  38.618  1.00  0.00     0.067 C 
HETATM    4  C4          0      66.195   4.436  37.911  1.00  0.00     0.103 C 
HETATM    5  O13         0      65.949   5.726  37.766  1.00  0.00    -0.307 OA
HETATM    6  C14         0      66.770   6.649  38.217  1.00  0.00     0.107 C 
HETATM    7  C15         0      66.741   7.951  37.737  1.00  0.00     0.049 C 
HETATM    8  C16         0      67.763   8.848  38.023  1.00  0.00     0.093 C 
HETATM    9  C18         0      68.478   8.573  39.183  1.00  0.00     0.048 C 
HETATM   10  C19         0      68.490   7.291  39.716  1.00  0.00     0.096 C 
HETATM   11  C21         0      67.779   6.295  39.106  1.00  0.00     0.084 C 
ENDROOT
BRANCH  10  12
HETATM   12  O20         0      69.517   6.925  40.581  1.00  0.00    -0.359 OA
HETATM   13  H20         0      70.405   7.166  40.346  1.00  0.00     0.218 HD
ENDBRANCH  10  12
BRANCH   4  14
HETATM   14  C5          0      65.677   3.502  36.909  1.00  0.00     0.025 C 
HETATM   15  C6          0      64.526   2.753  37.104  1.00  0.00     0.004 C 
HETATM   16  C7          0      63.686   2.567  36.010  1.00  0.00     0.026 C 
HETATM   17  C8          0      64.041   2.996  34.736  1.00  0.00     0.112 C 
HETATM   18  C10         0      65.407   3.139  34.533  1.00  0.00     0.112 C 
HETATM   19  C12         0      66.214   3.409  35.632  1.00  0.00     0.028 C 
BRANCH  17  20
HETATM   20  O9          0      63.081   3.437  33.843  1.00  0.00    -0.357 OA
HETATM   21  H9          0      63.283   3.805  32.990  1.00  0.00     0.218 HD
ENDBRANCH  17  20
BRANCH  18  22
HETATM   22  O11         0      65.827   3.379  33.232  1.00  0.00    -0.357 OA
HETATM   23  H11         0      65.895   2.627  32.656  1.00  0.00     0.218 HD
ENDBRANCH  18  22
ENDBRANCH   4  14
BRANCH   8  24
HETATM   24  O17         0      68.242   9.740  37.057  1.00  0.00    -0.359 OA
HETATM   25  H17         0      67.832   9.819  36.204  1.00  0.00     0.218 HD
ENDBRANCH   8  24
TORSDOF 5
ENDMDL
MODEL 5
REMARK VINA RESULT:      -4.8      3.914      6.453
REMARK  5 active torsions:
REMARK  status: ('A' for Active; 'I' for Inactive)
REMARK    1  A    between atoms: C4_4  and  C5_5 
REMARK    2  A    between atoms: C8_8  and  O9_9 
REMARK    3  A    between atoms: C10_11  and  O11_12 
REMARK    4  A    between atoms: C16_18  and  O17_19 
REMARK    5  A    between atoms: C19_22  and  O20_23 
ROOT
HETATM    1  O1          0      54.379   3.839  32.899  1.00  0.00    -0.286 OA
HETATM    2  C2          0      54.747   5.045  32.889  1.00  0.00     0.201 C 
HETATM    3  C3          0      56.038   5.434  32.572  1.00  0.00     0.067 C 
HETATM    4  C4          0      56.443   6.760  32.668  1.00  0.00     0.103 C 
HETATM    5  O13         0      55.562   7.667  33.052  1.00  0.00    -0.307 OA
HETATM    6  C14         0      54.335   7.347  33.399  1.00  0.00     0.107 C 
HETATM    7  C15         0      53.548   8.194  34.166  1.00  0.00     0.049 C 
HETATM    8  C16         0      52.362   7.754  34.741  1.00  0.00     0.093 C 
HETATM    9  C18         0      51.766   6.673  34.102  1.00  0.00     0.048 C 
HETATM   10  C19         0      52.515   5.832  33.290  1.00  0.00     0.096 C 
HETATM   11  C21         0      53.848   6.079  33.104  1.00  0.00     0.084 C 
ENDROOT
BRANCH  10  12
HETATM   12  O20         0      52.044   4.551  33.020  1.00  0.00    -0.359 OA
HETATM   13  H20         0      51.928   4.302  32.111  1.00  0.00     0.218 HD
ENDBRANCH  10  12
BRANCH   4  14
HETATM   14  C5          0      57.865   7.010  32.914  1.00  0.00     0.025 C 
HETATM   15  C6          0      58.843   6.046  32.717  1.00  0.00     0.004 C 
HETATM   16  C7          0      60.060   6.462  32.187  1.00  0.00     0.026 C 
HETATM   17  C8          0      60.346   7.808  31.985  1.00  0.00     0.112 C 
HETATM   18  C10         0      59.608   8.682  32.773  1.00  0.00     0.112 C 
HETATM   19  C12         0      58.357   8.272  33.219  1.00  0.00     0.028 C 
BRANCH  17  20
HETATM   20  O9          0      61.146   8.213  30.932  1.00  0.00    -0.357 OA
HETATM   21  H9          0      60.848   8.265  30.032  1.00  0.00     0.218 HD
ENDBRANCH  17  20
BRANCH  18  22
HETATM   22  O11         0      59.983  10.017  32.751  1.00  0.00    -0.357 OA
HETATM   23  H11         0      59.869  10.510  33.555  1.00  0.00     0.218 HD
ENDBRANCH  18  22
ENDBRANCH   4  14
BRANCH   8  24
HETATM   24  O17         0      51.991   8.141  36.033  1.00  0.00    -0.359 OA
HETATM   25  H17         0      51.765   9.040  36.240  1.00  0.00     0.218 HD
ENDBRANCH   8  24
TORSDOF 5
ENDMDL
MODEL 6
REMARK VINA RESULT:      -4.8      7.744      9.620
REMARK  5 active torsions:
REMARK  status: ('A' for Active; 'I' for Inactive)
REMARK    1  A    between atoms: C4_4  and  C5_5 
REMARK    2  A    between atoms: C8_8  and  O9_9 
REMARK    3  A    between atoms: C10_11  and  O11_12 
REMARK    4  A    between atoms: C16_18  and  O17_19 
REMARK    5  A    between atoms: C19_22  and  O20_23 
ROOT
HETATM    1  O1          0      63.716   6.753  38.074  1.00  0.00    -0.286 OA
HETATM    2  C2          0      64.693   5.961  38.166  1.00  0.00     0.201 C 
HETATM    3  C3          0      65.680   6.094  39.128  1.00  0.00     0.067 C 
HETATM    4  C4          0      66.800   5.270  39.142  1.00  0.00     0.103 C 
HETATM    5  O13         0      66.904   4.325  38.224  1.00  0.00    -0.307 OA
HETATM    6  C14         0      66.015   4.179  37.267  1.00  0.00     0.107 C 
HETATM    7  C15         0      66.304   3.486  36.100  1.00  0.00     0.049 C 
HETATM    8  C16         0      65.463   3.550  34.995  1.00  0.00     0.093 C 
HETATM    9  C18         0      64.140   3.865  35.282  1.00  0.00     0.048 C 
HETATM   10  C19         0      63.810   4.517  36.463  1.00  0.00     0.096 C 
HETATM   11  C21         0      64.793   4.837  37.359  1.00  0.00     0.084 C 
ENDROOT
BRANCH  10  12
HETATM   12  O20         0      62.602   5.203  36.547  1.00  0.00    -0.359 OA
HETATM   13  H20         0      61.819   4.702  36.740  1.00  0.00     0.218 HD
ENDBRANCH  10  12
BRANCH   4  14
HETATM   14  C5          0      68.022   5.810  39.741  1.00  0.00     0.025 C 
HETATM   15  C6          0      68.525   7.063  39.421  1.00  0.00     0.004 C 
HETATM   16  C7          0      69.083   7.815  40.449  1.00  0.00     0.026 C 
HETATM   17  C8          0      69.258   7.290  41.725  1.00  0.00     0.112 C 
HETATM   18  C10         0      69.324   5.904  41.778  1.00  0.00     0.112 C 
HETATM   19  C12         0      68.685   5.174  40.782  1.00  0.00     0.028 C 
BRANCH  17  20
HETATM   20  O9          0      69.155   8.097  42.844  1.00  0.00    -0.357 OA
HETATM   21  H9          0      69.897   8.520  43.260  1.00  0.00     0.218 HD
ENDBRANCH  17  20
BRANCH  18  22
HETATM   22  O11         0      69.685   5.338  42.992  1.00  0.00    -0.357 OA
HETATM   23  H11         0      70.431   4.749  42.987  1.00  0.00     0.218 HD
ENDBRANCH  18  22
ENDBRANCH   4  14
BRANCH   8  24
HETATM   24  O17         0      65.973   3.629  33.695  1.00  0.00    -0.359 OA
HETATM   25  H17         0      66.083   2.855  33.155  1.00  0.00     0.218 HD
ENDBRANCH   8  24
TORSDOF 5
ENDMDL
MODEL 7
REMARK VINA RESULT:      -4.6      7.922      9.736
REMARK  5 active torsions:
REMARK  status: ('A' for Active; 'I' for Inactive)
REMARK    1  A    between atoms: C4_4  and  C5_5 
REMARK    2  A    between atoms: C8_8  and  O9_9 
REMARK    3  A    between atoms: C10_11  and  O11_12 
REMARK    4  A    between atoms: C16_18  and  O17_19 
REMARK    5  A    between atoms: C19_22  and  O20_23 
ROOT
HETATM    1  O1          0      67.480   8.886  38.439  1.00  0.00    -0.286 OA
HETATM    2  C2          0      67.488   7.639  38.627  1.00  0.00     0.201 C 
HETATM    3  C3          0      66.735   6.760  37.866  1.00  0.00     0.067 C 
HETATM    4  C4          0      66.683   5.402  38.160  1.00  0.00     0.103 C 
HETATM    5  O13         0      67.389   4.946  39.180  1.00  0.00    -0.307 OA
HETATM    6  C14         0      68.090   5.742  39.957  1.00  0.00     0.107 C 
HETATM    7  C15         0      68.493   5.355  41.227  1.00  0.00     0.049 C 
HETATM    8  C16         0      69.005   6.275  42.133  1.00  0.00     0.093 C 
HETATM    9  C18         0      69.572   7.409  41.562  1.00  0.00     0.048 C 
HETATM   10  C19         0      69.226   7.798  40.276  1.00  0.00     0.096 C 
HETATM   11  C21         0      68.332   7.052  39.557  1.00  0.00     0.084 C 
ENDROOT
BRANCH  10  12
HETATM   12  O20         0      69.438   9.117  39.884  1.00  0.00    -0.359 OA
HETATM   13  H20         0      70.193   9.570  40.240  1.00  0.00     0.218 HD
ENDBRANCH  10  12
BRANCH   4  14
HETATM   14  C5          0      65.479   4.675  37.754  1.00  0.00     0.025 C 
HETATM   15  C6          0      64.357   4.568  38.563  1.00  0.00     0.004 C 
HETATM   16  C7          0      63.111   4.632  37.948  1.00  0.00     0.026 C 
HETATM   17  C8          0      62.981   4.666  36.564  1.00  0.00     0.112 C 
HETATM   18  C10         0      64.062   4.141  35.868  1.00  0.00     0.112 C 
HETATM   19  C12         0      65.313   4.167  36.472  1.00  0.00     0.028 C 
BRANCH  17  20
HETATM   20  O9          0      61.947   5.364  35.966  1.00  0.00    -0.357 OA
HETATM   21  H9          0      61.647   6.217  36.259  1.00  0.00     0.218 HD
ENDBRANCH  17  20
BRANCH  18  22
HETATM   22  O11         0      63.907   3.977  34.498  1.00  0.00    -0.357 OA
HETATM   23  H11         0      64.178   4.701  33.945  1.00  0.00     0.218 HD
ENDBRANCH  18  22
ENDBRANCH   4  14
BRANCH   8  24
HETATM   24  O17         0      68.672   6.224  43.492  1.00  0.00    -0.359 OA
HETATM   25  H17         0      67.769   6.224  43.784  1.00  0.00     0.218 HD
ENDBRANCH   8  24
TORSDOF 5
ENDMDL
MODEL 8
REMARK VINA RESULT:      -4.5      3.576      6.196
REMARK  5 active torsions:
REMARK  status: ('A' for Active; 'I' for Inactive)
REMARK    1  A    between atoms: C4_4  and  C5_5 
REMARK    2  A    between atoms: C8_8  and  O9_9 
REMARK    3  A    between atoms: C10_11  and  O11_12 
REMARK    4  A    between atoms: C16_18  and  O17_19 
REMARK    5  A    between atoms: C19_22  and  O20_23 
ROOT
HETATM    1  O1          0      55.370   3.904  34.121  1.00  0.00    -0.286 OA
HETATM    2  C2          0      55.551   5.080  33.701  1.00  0.00     0.201 C 
HETATM    3  C3          0      56.781   5.539  33.262  1.00  0.00     0.067 C 
HETATM    4  C4          0      56.976   6.868  32.902  1.00  0.00     0.103 C 
HETATM    5  O13         0      55.952   7.700  32.964  1.00  0.00    -0.307 OA
HETATM    6  C14         0      54.773   7.325  33.409  1.00  0.00     0.107 C 
HETATM    7  C15         0      53.832   8.243  33.851  1.00  0.00     0.049 C 
HETATM    8  C16         0      52.701   7.839  34.551  1.00  0.00     0.093 C 
HETATM    9  C18         0      52.305   6.528  34.318  1.00  0.00     0.048 C 
HETATM   10  C19         0      53.209   5.593  33.832  1.00  0.00     0.096 C 
HETATM   11  C21         0      54.497   5.970  33.563  1.00  0.00     0.084 C 
ENDROOT
BRANCH  10  12
HETATM   12  O20         0      52.950   4.238  34.012  1.00  0.00    -0.359 OA
HETATM   13  H20         0      52.120   3.898  33.702  1.00  0.00     0.218 HD
ENDBRANCH  10  12
BRANCH   4  14
HETATM   14  C5          0      58.331   7.406  33.038  1.00  0.00     0.025 C 
HETATM   15  C6          0      58.600   8.767  33.070  1.00  0.00     0.004 C 
HETATM   16  C7          0      59.595   9.208  33.936  1.00  0.00     0.026 C 
HETATM   17  C8          0      60.389   8.316  34.649  1.00  0.00     0.112 C 
HETATM   18  C10         0      60.479   7.047  34.092  1.00  0.00     0.112 C 
HETATM   19  C12         0      59.431   6.598  33.298  1.00  0.00     0.028 C 
BRANCH  17  20
HETATM   20  O9          0      60.858   8.636  35.911  1.00  0.00    -0.357 OA
HETATM   21  H9          0      60.313   9.000  36.599  1.00  0.00     0.218 HD
ENDBRANCH  17  20
BRANCH  18  22
HETATM   22  O11         0      61.404   6.178  34.654  1.00  0.00    -0.357 OA
HETATM   23  H11         0      61.176   5.791  35.491  1.00  0.00     0.218 HD
ENDBRANCH  18  22
ENDBRANCH   4  14
BRANCH   8  24
HETATM   24  O17         0      52.217   8.572  35.640  1.00  0.00    -0.359 OA
HETATM   25  H17         0      51.286   8.668  35.803  1.00  0.00     0.218 HD
ENDBRANCH   8  24
TORSDOF 5
ENDMDL
MODEL 9
REMARK VINA RESULT:      -4.4      8.837     12.330
REMARK  5 active torsions:
REMARK  status: ('A' for Active; 'I' for Inactive)
REMARK    1  A    between atoms: C4_4  and  C5_5 
REMARK    2  A    between atoms: C8_8  and  O9_9 
REMARK    3  A    between atoms: C10_11  and  O11_12 
REMARK    4  A    between atoms: C16_18  and  O17_19 
REMARK    5  A    between atoms: C19_22  and  O20_23 
ROOT
HETATM    1  O1          0      68.712   1.370  42.075  1.00  0.00    -0.286 OA
HETATM    2  C2          0      68.955   2.106  41.080  1.00  0.00     0.201 C 
HETATM    3  C3          0      68.826   3.484  41.116  1.00  0.00     0.067 C 
HETATM    4  C4          0      69.001   4.263  39.977  1.00  0.00     0.103 C 
HETATM    5  O13         0      69.317   3.665  38.842  1.00  0.00    -0.307 OA
HETATM    6  C14         0      69.415   2.357  38.745  1.00  0.00     0.107 C 
HETATM    7  C15         0      69.347   1.708  37.520  1.00  0.00     0.049 C 
HETATM    8  C16         0      69.194   0.329  37.442  1.00  0.00     0.093 C 
HETATM    9  C18         0      69.641  -0.375  38.553  1.00  0.00     0.048 C 
HETATM   10  C19         0      69.766   0.255  39.784  1.00  0.00     0.096 C 
HETATM   11  C21         0      69.463   1.584  39.900  1.00  0.00     0.084 C 
ENDROOT
BRANCH  10  12
HETATM   12  O20         0      69.782  -0.514  40.944  1.00  0.00    -0.359 OA
HETATM   13  H20         0      69.126  -0.334  41.606  1.00  0.00     0.218 HD
ENDBRANCH  10  12
BRANCH   4  14
HETATM   14  C5          0      68.292   5.543  39.926  1.00  0.00     0.025 C 
HETATM   15  C6          0      68.739   6.676  40.589  1.00  0.00     0.004 C 
HETATM   16  C7          0      68.593   7.900  39.944  1.00  0.00     0.026 C 
HETATM   17  C8          0      67.905   8.013  38.740  1.00  0.00     0.112 C 
HETATM   18  C10         0      66.989   6.999  38.499  1.00  0.00     0.112 C 
HETATM   19  C12         0      67.205   5.759  39.089  1.00  0.00     0.028 C 
BRANCH  17  20
HETATM   20  O9          0      68.283   8.949  37.794  1.00  0.00    -0.357 OA
HETATM   21  H9          0      69.181   9.228  37.656  1.00  0.00     0.218 HD
ENDBRANCH  17  20
BRANCH  18  22
HETATM   22  O11         0      66.145   7.160  37.410  1.00  0.00    -0.357 OA
HETATM   23  H11         0      65.321   7.608  37.566  1.00  0.00     0.218 HD
ENDBRANCH  18  22
ENDBRANCH   4  14
BRANCH   8  24
HETATM   24  O17         0      68.360  -0.259  36.485  1.00  0.00    -0.359 OA
HETATM   25  H17         0      68.303   0.077  35.598  1.00  0.00     0.218 HD
ENDBRANCH   8  24
TORSDOF 5
ENDMDL
