MODEL 1
REMARK VINA RESULT:      -0.0      0.000      0.000
REMARK  5 active torsions:
REMARK  status: ('A' for Active; 'I' for Inactive)
REMARK    1  A    between atoms: C4_4  and  C5_5 
REMARK    2  A    between atoms: C8_8  and  O9_9 
REMARK    3  A    between atoms: C10_11  and  O11_12 
REMARK    4  A    between atoms: C16_18  and  O17_19 
REMARK    5  A    between atoms: C19_22  and  O20_23 
ROOT
HETATM    1  O1          0      13.354 105.687 -14.670  1.00  0.00    -0.286 OA
HETATM    2  C2          0      14.111 104.794 -15.141  1.00  0.00     0.201 C 
HETATM    3  C3          0      13.912 103.444 -14.910  1.00  0.00     0.067 C 
HETATM    4  C4          0      14.818 102.487 -15.355  1.00  0.00     0.103 C 
HETATM    5  O13         0      15.881 102.886 -16.031  1.00  0.00    -0.307 OA
HETATM    6  C14         0      16.136 104.158 -16.246  1.00  0.00     0.107 C 
HETATM    7  C15         0      17.406 104.602 -16.585  1.00  0.00     0.049 C 
HETATM    8  C16         0      17.730 105.953 -16.560  1.00  0.00     0.093 C 
HETATM    9  C18         0      16.651 106.817 -16.711  1.00  0.00     0.048 C 
HETATM   10  C19         0      15.361 106.392 -16.425  1.00  0.00     0.096 C 
HETATM   11  C21         0      15.147 105.106 -16.008  1.00  0.00     0.084 C 
ENDROOT
BRANCH  10  12
HETATM   12  O20         0      14.377 107.338 -16.155  1.00  0.00    -0.359 OA
HETATM   13  H20         0      14.618 108.255 -16.197  1.00  0.00     0.218 HD
ENDBRANCH  10  12
BRANCH   4  14
HETATM   14  C5          0      14.891 101.233 -14.604  1.00  0.00     0.025 C 
HETATM   15  C6          0      16.067 100.511 -14.457  1.00  0.00     0.004 C 
HETATM   16  C7          0      16.300  99.902 -13.228  1.00  0.00     0.026 C 
HETATM   17  C8          0      15.339  99.896 -12.223  1.00  0.00     0.112 C 
HETATM   18  C10         0      14.034 100.062 -12.668  1.00  0.00     0.112 C 
HETATM   19  C12         0      13.824 100.749 -13.857  1.00  0.00     0.028 C 
BRANCH  17  20
HETATM   20  O9          0      15.707  99.935 -10.890  1.00  0.00    -0.357 OA
HETATM   21  H9          0      15.108  99.765 -10.172  1.00  0.00     0.218 HD
ENDBRANCH  17  20
BRANCH  18  22
HETATM   22  O11         0      13.024  99.876 -11.735  1.00  0.00    -0.357 OA
HETATM   23  H11         0      12.135  99.827 -12.067  1.00  0.00     0.218 HD
ENDBRANCH  18  22
ENDBRANCH   4  14
BRANCH   8  24
HETATM   24  O17         0      18.969 106.398 -16.087  1.00  0.00    -0.359 OA
HETATM   25  H17         0      19.473 107.056 -16.550  1.00  0.00     0.218 HD
ENDBRANCH   8  24
TORSDOF 5
ENDMDL
MODEL 2
REMARK VINA RESULT:      -0.0      3.069      5.355
REMARK  5 active torsions:
REMARK  status: ('A' for Active; 'I' for Inactive)
REMARK    1  A    between atoms: C4_4  and  C5_5 
REMARK    2  A    between atoms: C8_8  and  O9_9 
REMARK    3  A    between atoms: C10_11  and  O11_12 
REMARK    4  A    between atoms: C16_18  and  O17_19 
REMARK    5  A    between atoms: C19_22  and  O20_23 
ROOT
HETATM    1  O1          0      15.912 104.576 -13.418  1.00  0.00    -0.286 OA
HETATM    2  C2          0      15.347 103.449 -13.374  1.00  0.00     0.201 C 
HETATM    3  C3          0      13.979 103.289 -13.510  1.00  0.00     0.067 C 
HETATM    4  C4          0      13.371 102.048 -13.355  1.00  0.00     0.103 C 
HETATM    5  O13         0      14.130 100.998 -13.090  1.00  0.00    -0.307 OA
HETATM    6  C14         0      15.429 101.101 -12.914  1.00  0.00     0.107 C 
HETATM    7  C15         0      16.157 100.120 -12.258  1.00  0.00     0.049 C 
HETATM    8  C16         0      17.467 100.344 -11.851  1.00  0.00     0.093 C 
HETATM    9  C18         0      18.146 101.320 -12.569  1.00  0.00     0.048 C 
HETATM   10  C19         0      17.448 102.290 -13.275  1.00  0.00     0.096 C 
HETATM   11  C21         0      16.080 102.275 -13.278  1.00  0.00     0.084 C 
ENDROOT
BRANCH  10  12
HETATM   12  O20         0      18.088 103.479 -13.613  1.00  0.00    -0.359 OA
HETATM   13  H20         0      17.792 104.278 -13.194  1.00  0.00     0.218 HD
ENDBRANCH  10  12
BRANCH   4  14
HETATM   14  C5          0      11.974 102.036 -12.917  1.00  0.00     0.025 C 
HETATM   15  C6          0      11.460 101.064 -12.071  1.00  0.00     0.004 C 
HETATM   16  C7          0      10.538 101.469 -11.111  1.00  0.00     0.026 C 
HETATM   17  C8          0      10.042 102.767 -11.077  1.00  0.00     0.112 C 
HETATM   18  C10         0      10.113 103.447 -12.286  1.00  0.00     0.112 C 
HETATM   19  C12         0      11.099 103.078 -13.193  1.00  0.00     0.028 C 
BRANCH  17  20
HETATM   20  O9          0       9.712 103.370  -9.876  1.00  0.00    -0.357 OA
HETATM   21  H9          0       8.841 103.350  -9.497  1.00  0.00     0.218 HD
ENDBRANCH  17  20
BRANCH  18  22
HETATM   22  O11         0       9.463 104.671 -12.358  1.00  0.00    -0.357 OA
HETATM   23  H11         0       9.277 105.108 -11.535  1.00  0.00     0.218 HD
ENDBRANCH  18  22
ENDBRANCH   4  14
BRANCH   8  24
HETATM   24  O17         0      17.938  99.876 -10.619  1.00  0.00    -0.359 OA
HETATM   25  H17         0      18.227 100.470  -9.937  1.00  0.00     0.218 HD
ENDBRANCH   8  24
TORSDOF 5
ENDMDL
MODEL 3
REMARK VINA RESULT:      -0.0      2.316      2.429
REMARK  5 active torsions:
REMARK  status: ('A' for Active; 'I' for Inactive)
REMARK    1  A    between atoms: C4_4  and  C5_5 
REMARK    2  A    between atoms: C8_8  and  O9_9 
REMARK    3  A    between atoms: C10_11  and  O11_12 
REMARK    4  A    between atoms: C16_18  and  O17_19 
REMARK    5  A    between atoms: C19_22  and  O20_23 
ROOT
HETATM    1  O1          0      13.418 105.998 -13.587  1.00  0.00    -0.286 OA
HETATM    2  C2          0      13.383 104.870 -14.152  1.00  0.00     0.201 C 
HETATM    3  C3          0      13.383 103.678 -13.449  1.00  0.00     0.067 C 
HETATM    4  C4          0      13.447 102.450 -14.097  1.00  0.00     0.103 C 
HETATM    5  O13         0      13.490 102.431 -15.418  1.00  0.00    -0.307 OA
HETATM    6  C14         0      13.530 103.534 -16.132  1.00  0.00     0.107 C 
HETATM    7  C15         0      13.971 103.537 -17.448  1.00  0.00     0.049 C 
HETATM    8  C16         0      14.253 104.725 -18.111  1.00  0.00     0.093 C 
HETATM    9  C18         0      13.592 105.844 -17.619  1.00  0.00     0.048 C 
HETATM   10  C19         0      13.097 105.857 -16.322  1.00  0.00     0.096 C 
HETATM   11  C21         0      13.247 104.754 -15.527  1.00  0.00     0.084 C 
ENDROOT
BRANCH  10  12
HETATM   12  O20         0      12.843 107.077 -15.703  1.00  0.00    -0.359 OA
HETATM   13  H20         0      12.047 107.538 -15.939  1.00  0.00     0.218 HD
ENDBRANCH  10  12
BRANCH   4  14
HETATM   14  C5          0      14.035 101.332 -13.357  1.00  0.00     0.025 C 
HETATM   15  C6          0      14.812 100.355 -13.962  1.00  0.00     0.004 C 
HETATM   16  C7          0      15.911  99.876 -13.256  1.00  0.00     0.026 C 
HETATM   17  C8          0      16.153 100.255 -11.940  1.00  0.00     0.112 C 
HETATM   18  C10         0      15.033 100.695 -11.247  1.00  0.00     0.112 C 
HETATM   19  C12         0      13.984 101.247 -11.972  1.00  0.00     0.028 C 
BRANCH  17  20
HETATM   20  O9          0      17.447 100.374 -11.463  1.00  0.00    -0.357 OA
HETATM   21  H9          0      17.725 100.065 -10.609  1.00  0.00     0.218 HD
ENDBRANCH  17  20
BRANCH  18  22
HETATM   22  O11         0      15.180 100.905  -9.883  1.00  0.00    -0.357 OA
HETATM   23  H11         0      15.288 100.133  -9.339  1.00  0.00     0.218 HD
ENDBRANCH  18  22
ENDBRANCH   4  14
BRANCH   8  24
HETATM   24  O17         0      15.355 104.839 -18.967  1.00  0.00    -0.359 OA
HETATM   25  H17         0      16.243 104.876 -18.633  1.00  0.00     0.218 HD
ENDBRANCH   8  24
TORSDOF 5
ENDMDL
MODEL 4
REMARK VINA RESULT:      -0.0      7.701      9.350
REMARK  5 active torsions:
REMARK  status: ('A' for Active; 'I' for Inactive)
REMARK    1  A    between atoms: C4_4  and  C5_5 
REMARK    2  A    between atoms: C8_8  and  O9_9 
REMARK    3  A    between atoms: C10_11  and  O11_12 
REMARK    4  A    between atoms: C16_18  and  O17_19 
REMARK    5  A    between atoms: C19_22  and  O20_23 
ROOT
HETATM    1  O1          0       9.073  99.947 -16.896  1.00  0.00    -0.286 OA
HETATM    2  C2          0       8.475 100.923 -16.366  1.00  0.00     0.201 C 
HETATM    3  C3          0       8.694 101.316 -15.056  1.00  0.00     0.067 C 
HETATM    4  C4          0       7.948 102.329 -14.465  1.00  0.00     0.103 C 
HETATM    5  O13         0       7.023 102.939 -15.185  1.00  0.00    -0.307 OA
HETATM    6  C14         0       6.749 102.581 -16.420  1.00  0.00     0.107 C 
HETATM    7  C15         0       5.552 102.922 -17.031  1.00  0.00     0.049 C 
HETATM    8  C16         0       5.159 102.334 -18.228  1.00  0.00     0.093 C 
HETATM    9  C18         0       6.198 101.841 -19.008  1.00  0.00     0.048 C 
HETATM   10  C19         0       7.425 101.534 -18.437  1.00  0.00     0.096 C 
HETATM   11  C21         0       7.619 101.733 -17.097  1.00  0.00     0.084 C 
ENDROOT
BRANCH  10  12
HETATM   12  O20         0       8.283 100.660 -19.097  1.00  0.00    -0.359 OA
HETATM   13  H20         0       9.217 100.758 -18.952  1.00  0.00     0.218 HD
ENDBRANCH  10  12
BRANCH   4  14
HETATM   14  C5          0       7.793 102.284 -13.010  1.00  0.00     0.025 C 
HETATM   15  C6          0       6.715 102.858 -12.350  1.00  0.00     0.004 C 
HETATM   16  C7          0       6.192 102.176 -11.256  1.00  0.00     0.026 C 
HETATM   17  C8          0       6.800 101.033 -10.751  1.00  0.00     0.112 C 
HETATM   18  C10         0       8.151 100.915 -11.048  1.00  0.00     0.112 C 
HETATM   19  C12         0       8.632 101.536 -12.194  1.00  0.00     0.028 C 
BRANCH  17  20
HETATM   20  O9          0       6.045 100.018 -10.189  1.00  0.00    -0.357 OA
HETATM   21  H9          0       5.769 100.006  -9.280  1.00  0.00     0.218 HD
ENDBRANCH  17  20
BRANCH  18  22
HETATM   22  O11         0       8.847  99.896 -10.413  1.00  0.00    -0.357 OA
HETATM   23  H11         0       9.222  99.221 -10.967  1.00  0.00     0.218 HD
ENDBRANCH  18  22
ENDBRANCH   4  14
BRANCH   8  24
HETATM   24  O17         0       3.828 101.969 -18.459  1.00  0.00    -0.359 OA
HETATM   25  H17         0       3.277 101.627 -17.765  1.00  0.00     0.218 HD
ENDBRANCH   8  24
TORSDOF 5
ENDMDL
MODEL 5
REMARK VINA RESULT:      -0.0      3.258      5.305
REMARK  5 active torsions:
REMARK  status: ('A' for Active; 'I' for Inactive)
REMARK    1  A    between atoms: C4_4  and  C5_5 
REMARK    2  A    between atoms: C8_8  and  O9_9 
REMARK    3  A    between atoms: C10_11  and  O11_12 
REMARK    4  A    between atoms: C16_18  and  O17_19 
REMARK    5  A    between atoms: C19_22  and  O20_23 
ROOT
HETATM    1  O1          0      13.941 102.545 -18.101  1.00  0.00    -0.286 OA
HETATM    2  C2          0      13.424 102.745 -16.968  1.00  0.00     0.201 C 
HETATM    3  C3          0      14.174 103.037 -15.841  1.00  0.00     0.067 C 
HETATM    4  C4          0      13.588 103.152 -14.586  1.00  0.00     0.103 C 
HETATM    5  O13         0      12.280 102.996 -14.479  1.00  0.00    -0.307 OA
HETATM    6  C14         0      11.527 102.680 -15.510  1.00  0.00     0.107 C 
HETATM    7  C15         0      10.263 102.132 -15.351  1.00  0.00     0.049 C 
HETATM    8  C16         0       9.581 101.568 -16.422  1.00  0.00     0.093 C 
HETATM    9  C18         0       9.956 102.044 -17.673  1.00  0.00     0.048 C 
HETATM   10  C19         0      11.196 102.641 -17.857  1.00  0.00     0.096 C 
HETATM   11  C21         0      12.049 102.777 -16.795  1.00  0.00     0.084 C 
ENDROOT
BRANCH  10  12
HETATM   12  O20         0      11.734 102.711 -19.138  1.00  0.00    -0.359 OA
HETATM   13  H20         0      12.503 103.251 -19.269  1.00  0.00     0.218 HD
ENDBRANCH  10  12
BRANCH   4  14
HETATM   14  C5          0      14.430 102.858 -13.425  1.00  0.00     0.025 C 
HETATM   15  C6          0      13.948 102.231 -12.285  1.00  0.00     0.004 C 
HETATM   16  C7          0      14.780 101.312 -11.654  1.00  0.00     0.026 C 
HETATM   17  C8          0      16.096 101.121 -12.060  1.00  0.00     0.112 C 
HETATM   18  C10         0      16.654 102.194 -12.742  1.00  0.00     0.112 C 
HETATM   19  C12         0      15.806 103.049 -13.436  1.00  0.00     0.028 C 
BRANCH  17  20
HETATM   20  O9          0      16.694  99.877 -11.964  1.00  0.00    -0.357 OA
HETATM   21  H9          0      17.094  99.543 -11.170  1.00  0.00     0.218 HD
ENDBRANCH  17  20
BRANCH  18  22
HETATM   22  O11         0      18.016 102.133 -13.003  1.00  0.00    -0.357 OA
HETATM   23  H11         0      18.565 101.743 -12.333  1.00  0.00     0.218 HD
ENDBRANCH  18  22
ENDBRANCH   4  14
BRANCH   8  24
HETATM   24  O17         0       8.835 100.393 -16.276  1.00  0.00    -0.359 OA
HETATM   25  H17         0       9.244  99.569 -16.042  1.00  0.00     0.218 HD
ENDBRANCH   8  24
TORSDOF 5
ENDMDL
MODEL 6
REMARK VINA RESULT:      -0.0      3.477      7.011
REMARK  5 active torsions:
REMARK  status: ('A' for Active; 'I' for Inactive)
REMARK    1  A    between atoms: C4_4  and  C5_5 
REMARK    2  A    between atoms: C8_8  and  O9_9 
REMARK    3  A    between atoms: C10_11  and  O11_12 
REMARK    4  A    between atoms: C16_18  and  O17_19 
REMARK    5  A    between atoms: C19_22  and  O20_23 
ROOT
HETATM    1  O1          0      16.075 101.543 -14.866  1.00  0.00    -0.286 OA
HETATM    2  C2          0      14.869 101.232 -15.063  1.00  0.00     0.201 C 
HETATM    3  C3          0      14.256 101.347 -16.299  1.00  0.00     0.067 C 
HETATM    4  C4          0      12.899 101.095 -16.466  1.00  0.00     0.103 C 
HETATM    5  O13         0      12.190 100.717 -15.417  1.00  0.00    -0.307 OA
HETATM    6  C14         0      12.714 100.627 -14.214  1.00  0.00     0.107 C 
HETATM    7  C15         0      11.927 100.628 -13.072  1.00  0.00     0.049 C 
HETATM    8  C16         0      12.486 100.791 -11.810  1.00  0.00     0.093 C 
HETATM    9  C18         0      13.821 100.421 -11.708  1.00  0.00     0.048 C 
HETATM   10  C19         0      14.626 100.364 -12.837  1.00  0.00     0.096 C 
HETATM   11  C21         0      14.096 100.659 -14.064  1.00  0.00     0.084 C 
ENDROOT
BRANCH  10  12
HETATM   12  O20         0      16.009 100.427 -12.692  1.00  0.00    -0.359 OA
HETATM   13  H20         0      16.485 101.049 -13.228  1.00  0.00     0.218 HD
ENDBRANCH  10  12
BRANCH   4  14
HETATM   14  C5          0      12.220 101.785 -17.564  1.00  0.00     0.025 C 
HETATM   15  C6          0      10.909 102.232 -17.475  1.00  0.00     0.004 C 
HETATM   16  C7          0      10.602 103.451 -18.071  1.00  0.00     0.026 C 
HETATM   17  C8          0      11.531 104.139 -18.844  1.00  0.00     0.112 C 
HETATM   18  C10         0      12.537 103.348 -19.383  1.00  0.00     0.112 C 
HETATM   19  C12         0      12.882 102.177 -18.720  1.00  0.00     0.028 C 
BRANCH  17  20
HETATM   20  O9          0      11.542 105.522 -18.874  1.00  0.00    -0.357 OA
HETATM   21  H9          0      11.311 106.068 -18.131  1.00  0.00     0.218 HD
ENDBRANCH  17  20
BRANCH  18  22
HETATM   22  O11         0      13.377 103.946 -20.311  1.00  0.00    -0.357 OA
HETATM   23  H11         0      13.006 104.143 -21.164  1.00  0.00     0.218 HD
ENDBRANCH  18  22
ENDBRANCH   4  14
BRANCH   8  24
HETATM   24  O17         0      11.862 101.572 -10.831  1.00  0.00    -0.359 OA
HETATM   25  H17         0      11.564 101.199 -10.009  1.00  0.00     0.218 HD
ENDBRANCH   8  24
TORSDOF 5
ENDMDL
MODEL 7
REMARK VINA RESULT:      -0.0      3.354      4.975
REMARK  5 active torsions:
REMARK  status: ('A' for Active; 'I' for Inactive)
REMARK    1  A    between atoms: C4_4  and  C5_5 
REMARK    2  A    between atoms: C8_8  and  O9_9 
REMARK    3  A    between atoms: C10_11  and  O11_12 
REMARK    4  A    between atoms: C16_18  and  O17_19 
REMARK    5  A    between atoms: C19_22  and  O20_23 
ROOT
HETATM    1  O1          0      11.214 101.333 -17.032  1.00  0.00    -0.286 OA
HETATM    2  C2          0      11.732 102.313 -16.430  1.00  0.00     0.201 C 
HETATM    3  C3          0      12.685 102.166 -15.437  1.00  0.00     0.067 C 
HETATM    4  C4          0      13.164 103.256 -14.719  1.00  0.00     0.103 C 
HETATM    5  O13         0      12.708 104.460 -15.015  1.00  0.00    -0.307 OA
HETATM    6  C14         0      11.776 104.652 -15.923  1.00  0.00     0.107 C 
HETATM    7  C15         0      11.020 105.814 -15.960  1.00  0.00     0.049 C 
HETATM    8  C16         0       9.879 105.907 -16.748  1.00  0.00     0.093 C 
HETATM    9  C18         0       9.846 105.046 -17.839  1.00  0.00     0.048 C 
HETATM   10  C19         0      10.627 103.898 -17.855  1.00  0.00     0.096 C 
HETATM   11  C21         0      11.447 103.620 -16.795  1.00  0.00     0.084 C 
ENDROOT
BRANCH  10  12
HETATM   12  O20         0      10.280 102.852 -18.704  1.00  0.00    -0.359 OA
HETATM   13  H20         0      10.621 102.866 -19.590  1.00  0.00     0.218 HD
ENDBRANCH  10  12
BRANCH   4  14
HETATM   14  C5          0      13.658 103.002 -13.364  1.00  0.00     0.025 C 
HETATM   15  C6          0      13.492 103.903 -12.323  1.00  0.00     0.004 C 
HETATM   16  C7          0      13.214 103.386 -11.061  1.00  0.00     0.026 C 
HETATM   17  C8          0      13.234 102.017 -10.814  1.00  0.00     0.112 C 
HETATM   18  C10         0      14.003 101.278 -11.702  1.00  0.00     0.112 C 
HETATM   19  C12         0      14.194 101.778 -12.985  1.00  0.00     0.028 C 
BRANCH  17  20
HETATM   20  O9          0      12.378 101.453  -9.885  1.00  0.00    -0.357 OA
HETATM   21  H9          0      12.387 100.532  -9.649  1.00  0.00     0.218 HD
ENDBRANCH  17  20
BRANCH  18  22
HETATM   22  O11         0      14.210  99.942 -11.393  1.00  0.00    -0.357 OA
HETATM   23  H11         0      13.878  99.637 -10.556  1.00  0.00     0.218 HD
ENDBRANCH  18  22
ENDBRANCH   4  14
BRANCH   8  24
HETATM   24  O17         0       8.728 106.558 -16.290  1.00  0.00    -0.359 OA
HETATM   25  H17         0       8.397 106.427 -15.409  1.00  0.00     0.218 HD
ENDBRANCH   8  24
TORSDOF 5
ENDMDL
MODEL 8
REMARK VINA RESULT:      -0.0      4.141      5.405
REMARK  5 active torsions:
REMARK  status: ('A' for Active; 'I' for Inactive)
REMARK    1  A    between atoms: C4_4  and  C5_5 
REMARK    2  A    between atoms: C8_8  and  O9_9 
REMARK    3  A    between atoms: C10_11  and  O11_12 
REMARK    4  A    between atoms: C16_18  and  O17_19 
REMARK    5  A    between atoms: C19_22  and  O20_23 
ROOT
HETATM    1  O1          0      13.668 100.062 -20.030  1.00  0.00    -0.286 OA
HETATM    2  C2          0      13.847 101.175 -19.464  1.00  0.00     0.201 C 
HETATM    3  C3          0      14.291 101.290 -18.157  1.00  0.00     0.067 C 
HETATM    4  C4          0      14.382 102.524 -17.525  1.00  0.00     0.103 C 
HETATM    5  O13         0      14.053 103.610 -18.202  1.00  0.00    -0.307 OA
HETATM    6  C14         0      13.589 103.554 -19.431  1.00  0.00     0.107 C 
HETATM    7  C15         0      12.880 104.605 -19.994  1.00  0.00     0.049 C 
HETATM    8  C16         0      12.180 104.448 -21.184  1.00  0.00     0.093 C 
HETATM    9  C18         0      12.644 103.431 -22.008  1.00  0.00     0.048 C 
HETATM   10  C19         0      13.397 102.387 -21.486  1.00  0.00     0.096 C 
HETATM   11  C21         0      13.698 102.369 -20.152  1.00  0.00     0.084 C 
ENDROOT
BRANCH  10  12
HETATM   12  O20         0      13.481 101.190 -22.190  1.00  0.00    -0.359 OA
HETATM   13  H20         0      13.818 100.428 -21.734  1.00  0.00     0.218 HD
ENDBRANCH  10  12
BRANCH   4  14
HETATM   14  C5          0      14.261 102.540 -16.066  1.00  0.00     0.025 C 
HETATM   15  C6          0      13.631 103.564 -15.374  1.00  0.00     0.004 C 
HETATM   16  C7          0      12.864 103.218 -14.266  1.00  0.00     0.026 C 
HETATM   17  C8          0      12.831 101.916 -13.781  1.00  0.00     0.112 C 
HETATM   18  C10         0      13.934 101.143 -14.117  1.00  0.00     0.112 C 
HETATM   19  C12         0      14.633 101.459 -15.277  1.00  0.00     0.028 C 
BRANCH  17  20
HETATM   20  O9          0      11.684 101.405 -13.199  1.00  0.00    -0.357 OA
HETATM   21  H9          0      11.681 100.894 -12.398  1.00  0.00     0.218 HD
ENDBRANCH  17  20
BRANCH  18  22
HETATM   22  O11         0      14.043  99.902 -13.505  1.00  0.00    -0.357 OA
HETATM   23  H11         0      13.583  99.179 -13.915  1.00  0.00     0.218 HD
ENDBRANCH  18  22
ENDBRANCH   4  14
BRANCH   8  24
HETATM   24  O17         0      10.921 105.030 -21.372  1.00  0.00    -0.359 OA
HETATM   25  H17         0      10.146 104.504 -21.529  1.00  0.00     0.218 HD
ENDBRANCH   8  24
TORSDOF 5
ENDMDL
MODEL 9
REMARK VINA RESULT:      -0.0     10.133     11.777
REMARK  5 active torsions:
REMARK  status: ('A' for Active; 'I' for Inactive)
REMARK    1  A    between atoms: C4_4  and  C5_5 
REMARK    2  A    between atoms: C8_8  and  O9_9 
REMARK    3  A    between atoms: C10_11  and  O11_12 
REMARK    4  A    between atoms: C16_18  and  O17_19 
REMARK    5  A    between atoms: C19_22  and  O20_23 
ROOT
HETATM    1  O1          0      14.476 111.878 -19.938  1.00  0.00    -0.286 OA
HETATM    2  C2          0      13.274 111.984 -19.569  1.00  0.00     0.201 C 
HETATM    3  C3          0      12.361 110.950 -19.681  1.00  0.00     0.067 C 
HETATM    4  C4          0      11.019 111.125 -19.362  1.00  0.00     0.103 C 
HETATM    5  O13         0      10.620 112.306 -18.923  1.00  0.00    -0.307 OA
HETATM    6  C14         0      11.438 113.332 -18.834  1.00  0.00     0.107 C 
HETATM    7  C15         0      10.970 114.636 -18.767  1.00  0.00     0.049 C 
HETATM    8  C16         0      11.826 115.719 -18.929  1.00  0.00     0.093 C 
HETATM    9  C18         0      13.158 115.464 -18.627  1.00  0.00     0.048 C 
HETATM   10  C19         0      13.649 114.166 -18.638  1.00  0.00     0.096 C 
HETATM   11  C21         0      12.810 113.126 -18.933  1.00  0.00     0.084 C 
ENDROOT
BRANCH  10  12
HETATM   12  O20         0      15.018 113.957 -18.770  1.00  0.00    -0.359 OA
HETATM   13  H20         0      15.337 113.063 -18.738  1.00  0.00     0.218 HD
ENDBRANCH  10  12
BRANCH   4  14
HETATM   14  C5          0      10.051 110.261 -20.041  1.00  0.00     0.025 C 
HETATM   15  C6          0       8.733 110.635 -20.259  1.00  0.00     0.004 C 
HETATM   16  C7          0       8.150 110.265 -21.466  1.00  0.00     0.026 C 
HETATM   17  C8          0       8.807 109.437 -22.370  1.00  0.00     0.112 C 
HETATM   18  C10         0       9.790 108.633 -21.811  1.00  0.00     0.112 C 
HETATM   19  C12         0      10.417 109.068 -20.649  1.00  0.00     0.028 C 
BRANCH  17  20
HETATM   20  O9          0       8.618 109.585 -23.733  1.00  0.00    -0.357 OA
HETATM   21  H9          0       7.874 110.033 -24.118  1.00  0.00     0.218 HD
ENDBRANCH  17  20
BRANCH  18  22
HETATM   22  O11         0      10.344 107.657 -22.628  1.00  0.00    -0.357 OA
HETATM   23  H11         0       9.898 106.819 -22.659  1.00  0.00     0.218 HD
ENDBRANCH  18  22
ENDBRANCH   4  14
BRANCH   8  24
HETATM   24  O17         0      11.439 116.852 -19.654  1.00  0.00    -0.359 OA
HETATM   25  H17         0      10.643 117.327 -19.449  1.00  0.00     0.218 HD
ENDBRANCH   8  24
TORSDOF 5
ENDMDL
