MODEL 1
REMARK VINA RESULT:      -0.0      0.000      0.000
REMARK  5 active torsions:
REMARK  status: ('A' for Active; 'I' for Inactive)
REMARK    1  A    between atoms: C4_4  and  C5_5 
REMARK    2  A    between atoms: C8_8  and  O9_9 
REMARK    3  A    between atoms: C10_11  and  O11_12 
REMARK    4  A    between atoms: C16_18  and  O17_19 
REMARK    5  A    between atoms: C19_22  and  O20_23 
ROOT
HETATM    1  O1          0      11.136 118.433 -33.557  1.00  0.00    -0.286 OA
HETATM    2  C2          0       9.946 118.522 -33.150  1.00  0.00     0.201 C 
HETATM    3  C3          0       9.085 117.438 -33.105  1.00  0.00     0.067 C 
HETATM    4  C4          0       7.749 117.584 -32.749  1.00  0.00     0.103 C 
HETATM    5  O13         0       7.304 118.786 -32.429  1.00  0.00    -0.307 OA
HETATM    6  C14         0       8.070 119.854 -32.491  1.00  0.00     0.107 C 
HETATM    7  C15         0       7.536 121.133 -32.552  1.00  0.00     0.049 C 
HETATM    8  C16         0       8.326 122.230 -32.872  1.00  0.00     0.093 C 
HETATM    9  C18         0       9.681 122.077 -32.602  1.00  0.00     0.048 C 
HETATM   10  C19         0      10.239 120.811 -32.488  1.00  0.00     0.096 C 
HETATM   11  C21         0       9.446 119.705 -32.627  1.00  0.00     0.084 C 
ENDROOT
BRANCH  10  12
HETATM   12  O20         0      11.611 120.655 -32.655  1.00  0.00    -0.359 OA
HETATM   13  H20         0      11.921 120.282 -33.472  1.00  0.00     0.218 HD
ENDBRANCH  10  12
BRANCH   4  14
HETATM   14  C5          0       6.803 116.602 -33.283  1.00  0.00     0.025 C 
HETATM   15  C6          0       5.460 116.884 -33.484  1.00  0.00     0.004 C 
HETATM   16  C7          0       4.851 116.350 -34.615  1.00  0.00     0.026 C 
HETATM   17  C8          0       5.516 115.457 -35.449  1.00  0.00     0.112 C 
HETATM   18  C10         0       6.562 114.771 -34.846  1.00  0.00     0.112 C 
HETATM   19  C12         0       7.209 115.366 -33.769  1.00  0.00     0.028 C 
BRANCH  17  20
HETATM   20  O9          0       5.269 115.438 -36.810  1.00  0.00    -0.357 OA
HETATM   21  H9          0       5.012 114.659 -37.289  1.00  0.00     0.218 HD
ENDBRANCH  17  20
BRANCH  18  22
HETATM   22  O11         0       7.135 113.736 -35.571  1.00  0.00    -0.357 OA
HETATM   23  H11         0       6.591 112.975 -35.738  1.00  0.00     0.218 HD
ENDBRANCH  18  22
ENDBRANCH   4  14
BRANCH   8  24
HETATM   24  O17         0       7.853 123.253 -33.702  1.00  0.00    -0.359 OA
HETATM   25  H17         0       7.114 123.796 -33.453  1.00  0.00     0.218 HD
ENDBRANCH   8  24
TORSDOF 5
ENDMDL
MODEL 2
REMARK VINA RESULT:      -0.0      5.002      7.126
REMARK  5 active torsions:
REMARK  status: ('A' for Active; 'I' for Inactive)
REMARK    1  A    between atoms: C4_4  and  C5_5 
REMARK    2  A    between atoms: C8_8  and  O9_9 
REMARK    3  A    between atoms: C10_11  and  O11_12 
REMARK    4  A    between atoms: C16_18  and  O17_19 
REMARK    5  A    between atoms: C19_22  and  O20_23 
ROOT
HETATM    1  O1          0      11.811 120.042 -30.463  1.00  0.00    -0.286 OA
HETATM    2  C2          0      11.319 118.881 -30.484  1.00  0.00     0.201 C 
HETATM    3  C3          0      10.139 118.554 -29.836  1.00  0.00     0.067 C 
HETATM    4  C4          0       9.672 117.246 -29.789  1.00  0.00     0.103 C 
HETATM    5  O13         0      10.368 116.301 -30.397  1.00  0.00    -0.307 OA
HETATM    6  C14         0      11.513 116.551 -30.994  1.00  0.00     0.107 C 
HETATM    7  C15         0      12.426 115.545 -31.274  1.00  0.00     0.049 C 
HETATM    8  C16         0      13.727 115.839 -31.666  1.00  0.00     0.093 C 
HETATM    9  C18         0      13.893 117.084 -32.259  1.00  0.00     0.048 C 
HETATM   10  C19         0      12.973 118.100 -32.038  1.00  0.00     0.096 C 
HETATM   11  C21         0      11.884 117.868 -31.243  1.00  0.00     0.084 C 
ENDROOT
BRANCH  10  12
HETATM   12  O20         0      13.353 119.421 -32.256  1.00  0.00    -0.359 OA
HETATM   13  H20         0      14.230 119.680 -32.001  1.00  0.00     0.218 HD
ENDBRANCH  10  12
BRANCH   4  14
HETATM   14  C5          0       8.827 116.877 -28.652  1.00  0.00     0.025 C 
HETATM   15  C6          0       8.736 115.578 -28.173  1.00  0.00     0.004 C 
HETATM   16  C7          0       8.649 115.404 -26.796  1.00  0.00     0.026 C 
HETATM   17  C8          0       8.521 116.485 -25.930  1.00  0.00     0.112 C 
HETATM   18  C10         0       7.995 117.632 -26.510  1.00  0.00     0.112 C 
HETATM   19  C12         0       8.170 117.822 -27.875  1.00  0.00     0.028 C 
BRANCH  17  20
HETATM   20  O9          0       9.079 116.450 -24.665  1.00  0.00    -0.357 OA
HETATM   21  H9          0       9.498 117.197 -24.252  1.00  0.00     0.218 HD
ENDBRANCH  17  20
BRANCH  18  22
HETATM   22  O11         0       7.671 118.676 -25.655  1.00  0.00    -0.357 OA
HETATM   23  H11         0       8.360 119.300 -25.457  1.00  0.00     0.218 HD
ENDBRANCH  18  22
ENDBRANCH   4  14
BRANCH   8  24
HETATM   24  O17         0      14.815 115.096 -31.197  1.00  0.00    -0.359 OA
HETATM   25  H17         0      15.518 114.820 -31.774  1.00  0.00     0.218 HD
ENDBRANCH   8  24
TORSDOF 5
ENDMDL
MODEL 3
REMARK VINA RESULT:      -0.0      8.721      9.948
REMARK  5 active torsions:
REMARK  status: ('A' for Active; 'I' for Inactive)
REMARK    1  A    between atoms: C4_4  and  C5_5 
REMARK    2  A    between atoms: C8_8  and  O9_9 
REMARK    3  A    between atoms: C10_11  and  O11_12 
REMARK    4  A    between atoms: C16_18  and  O17_19 
REMARK    5  A    between atoms: C19_22  and  O20_23 
ROOT
HETATM    1  O1          0      13.239 114.795 -27.259  1.00  0.00    -0.286 OA
HETATM    2  C2          0      12.556 114.927 -26.207  1.00  0.00     0.201 C 
HETATM    3  C3          0      11.178 114.795 -26.185  1.00  0.00     0.067 C 
HETATM    4  C4          0      10.439 115.046 -25.034  1.00  0.00     0.103 C 
HETATM    5  O13         0      11.080 115.398 -23.934  1.00  0.00    -0.307 OA
HETATM    6  C14         0      12.383 115.574 -23.909  1.00  0.00     0.107 C 
HETATM    7  C15         0      13.002 116.311 -22.910  1.00  0.00     0.049 C 
HETATM    8  C16         0      14.330 116.708 -23.023  1.00  0.00     0.093 C 
HETATM    9  C18         0      15.109 115.917 -23.859  1.00  0.00     0.048 C 
HETATM   10  C19         0      14.518 115.131 -24.839  1.00  0.00     0.096 C 
HETATM   11  C21         0      13.157 115.121 -24.972  1.00  0.00     0.084 C 
ENDROOT
BRANCH  10  12
HETATM   12  O20         0      15.283 114.703 -25.920  1.00  0.00    -0.359 OA
HETATM   13  H20         0      15.704 115.364 -26.457  1.00  0.00     0.218 HD
ENDBRANCH  10  12
BRANCH   4  14
HETATM   14  C5          0       9.051 115.475 -25.210  1.00  0.00     0.025 C 
HETATM   15  C6          0       8.380 116.251 -24.276  1.00  0.00     0.004 C 
HETATM   16  C7          0       7.516 117.231 -24.754  1.00  0.00     0.026 C 
HETATM   17  C8          0       7.225 117.349 -26.109  1.00  0.00     0.112 C 
HETATM   18  C10         0       7.418 116.189 -26.846  1.00  0.00     0.112 C 
HETATM   19  C12         0       8.350 115.264 -26.390  1.00  0.00     0.028 C 
BRANCH  17  20
HETATM   20  O9          0       6.973 118.586 -26.675  1.00  0.00    -0.357 OA
HETATM   21  H9          0       6.230 119.131 -26.443  1.00  0.00     0.218 HD
ENDBRANCH  17  20
BRANCH  18  22
HETATM   22  O11         0       6.966 116.195 -28.158  1.00  0.00    -0.357 OA
HETATM   23  H11         0       6.123 115.790 -28.324  1.00  0.00     0.218 HD
ENDBRANCH  18  22
ENDBRANCH   4  14
BRANCH   8  24
HETATM   24  O17         0      14.750 117.976 -22.607  1.00  0.00    -0.359 OA
HETATM   25  H17         0      14.320 118.768 -22.909  1.00  0.00     0.218 HD
ENDBRANCH   8  24
TORSDOF 5
ENDMDL
MODEL 4
REMARK VINA RESULT:       0.0      4.734      5.748
REMARK  5 active torsions:
REMARK  status: ('A' for Active; 'I' for Inactive)
REMARK    1  A    between atoms: C4_4  and  C5_5 
REMARK    2  A    between atoms: C8_8  and  O9_9 
REMARK    3  A    between atoms: C10_11  and  O11_12 
REMARK    4  A    between atoms: C16_18  and  O17_19 
REMARK    5  A    between atoms: C19_22  and  O20_23 
ROOT
HETATM    1  O1          0       6.109 118.883 -30.836  1.00  0.00    -0.286 OA
HETATM    2  C2          0       5.051 118.286 -30.494  1.00  0.00     0.201 C 
HETATM    3  C3          0       5.010 116.929 -30.220  1.00  0.00     0.067 C 
HETATM    4  C4          0       3.814 116.277 -29.946  1.00  0.00     0.103 C 
HETATM    5  O13         0       2.696 116.982 -29.930  1.00  0.00    -0.307 OA
HETATM    6  C14         0       2.674 118.264 -30.220  1.00  0.00     0.107 C 
HETATM    7  C15         0       1.503 118.909 -30.594  1.00  0.00     0.049 C 
HETATM    8  C16         0       1.526 120.186 -31.141  1.00  0.00     0.093 C 
HETATM    9  C18         0       2.638 120.949 -30.804  1.00  0.00     0.048 C 
HETATM   10  C19         0       3.811 120.338 -30.381  1.00  0.00     0.096 C 
HETATM   11  C21         0       3.868 118.975 -30.278  1.00  0.00     0.084 C 
ENDROOT
BRANCH  10  12
HETATM   12  O20         0       5.011 121.036 -30.469  1.00  0.00    -0.359 OA
HETATM   13  H20         0       5.475 121.226 -29.662  1.00  0.00     0.218 HD
ENDBRANCH  10  12
BRANCH   4  14
HETATM   14  C5          0       3.742 114.849 -30.261  1.00  0.00     0.025 C 
HETATM   15  C6          0       2.551 114.204 -30.560  1.00  0.00     0.004 C 
HETATM   16  C7          0       2.578 113.227 -31.551  1.00  0.00     0.026 C 
HETATM   17  C8          0       3.770 112.810 -32.131  1.00  0.00     0.112 C 
HETATM   18  C10         0       4.901 113.029 -31.355  1.00  0.00     0.112 C 
HETATM   19  C12         0       4.877 114.066 -30.431  1.00  0.00     0.028 C 
BRANCH  17  20
HETATM   20  O9          0       3.813 112.414 -33.456  1.00  0.00    -0.357 OA
HETATM   21  H9          0       4.101 112.976 -34.167  1.00  0.00     0.218 HD
ENDBRANCH  17  20
BRANCH  18  22
HETATM   22  O11         0       6.088 112.464 -31.801  1.00  0.00    -0.357 OA
HETATM   23  H11         0       6.028 111.852 -32.525  1.00  0.00     0.218 HD
ENDBRANCH  18  22
ENDBRANCH   4  14
BRANCH   8  24
HETATM   24  O17         0       0.684 120.541 -32.201  1.00  0.00    -0.359 OA
HETATM   25  H17         0      -0.061 121.116 -32.075  1.00  0.00     0.218 HD
ENDBRANCH   8  24
TORSDOF 5
ENDMDL
MODEL 5
REMARK VINA RESULT:       0.0      4.569      6.536
REMARK  5 active torsions:
REMARK  status: ('A' for Active; 'I' for Inactive)
REMARK    1  A    between atoms: C4_4  and  C5_5 
REMARK    2  A    between atoms: C8_8  and  O9_9 
REMARK    3  A    between atoms: C10_11  and  O11_12 
REMARK    4  A    between atoms: C16_18  and  O17_19 
REMARK    5  A    between atoms: C19_22  and  O20_23 
ROOT
HETATM    1  O1          0      10.660 119.016 -30.587  1.00  0.00    -0.286 OA
HETATM    2  C2          0       9.880 118.035 -30.732  1.00  0.00     0.201 C 
HETATM    3  C3          0       8.988 117.633 -29.752  1.00  0.00     0.067 C 
HETATM    4  C4          0       8.214 116.488 -29.897  1.00  0.00     0.103 C 
HETATM    5  O13         0       8.325 115.783 -31.009  1.00  0.00    -0.307 OA
HETATM    6  C14         0       9.183 116.099 -31.954  1.00  0.00     0.107 C 
HETATM    7  C15         0       9.589 115.178 -32.909  1.00  0.00     0.049 C 
HETATM    8  C16         0      10.674 115.432 -33.740  1.00  0.00     0.093 C 
HETATM    9  C18         0      10.962 116.777 -33.935  1.00  0.00     0.048 C 
HETATM   10  C19         0      10.530 117.731 -33.023  1.00  0.00     0.096 C 
HETATM   11  C21         0       9.800 117.345 -31.932  1.00  0.00     0.084 C 
ENDROOT
BRANCH  10  12
HETATM   12  O20         0      11.167 118.967 -32.978  1.00  0.00    -0.359 OA
HETATM   13  H20         0      11.997 119.057 -33.430  1.00  0.00     0.218 HD
ENDBRANCH  10  12
BRANCH   4  14
HETATM   14  C5          0       7.787 115.809 -28.672  1.00  0.00     0.025 C 
HETATM   15  C6          0       7.508 114.451 -28.623  1.00  0.00     0.004 C 
HETATM   16  C7          0       7.896 113.754 -27.483  1.00  0.00     0.026 C 
HETATM   17  C8          0       8.421 114.407 -26.372  1.00  0.00     0.112 C 
HETATM   18  C10         0       8.074 115.748 -26.270  1.00  0.00     0.112 C 
HETATM   19  C12         0       7.774 116.443 -27.436  1.00  0.00     0.028 C 
BRANCH  17  20
HETATM   20  O9          0       9.375 113.797 -25.578  1.00  0.00    -0.357 OA
HETATM   21  H9          0       9.168 113.206 -24.863  1.00  0.00     0.218 HD
ENDBRANCH  17  20
BRANCH  18  22
HETATM   22  O11         0       8.412 116.396 -25.091  1.00  0.00    -0.357 OA
HETATM   23  H11         0       9.288 116.759 -25.035  1.00  0.00     0.218 HD
ENDBRANCH  18  22
ENDBRANCH   4  14
BRANCH   8  24
HETATM   24  O17         0      11.592 114.428 -34.068  1.00  0.00    -0.359 OA
HETATM   25  H17         0      11.800 114.217 -34.971  1.00  0.00     0.218 HD
ENDBRANCH   8  24
TORSDOF 5
ENDMDL
MODEL 6
REMARK VINA RESULT:       0.0      4.096      5.744
REMARK  5 active torsions:
REMARK  status: ('A' for Active; 'I' for Inactive)
REMARK    1  A    between atoms: C4_4  and  C5_5 
REMARK    2  A    between atoms: C8_8  and  O9_9 
REMARK    3  A    between atoms: C10_11  and  O11_12 
REMARK    4  A    between atoms: C16_18  and  O17_19 
REMARK    5  A    between atoms: C19_22  and  O20_23 
ROOT
HETATM    1  O1          0      10.660 119.016 -30.587  1.00  0.00    -0.286 OA
HETATM    2  C2          0      10.205 118.003 -31.186  1.00  0.00     0.201 C 
HETATM    3  C3          0       9.398 117.064 -30.566  1.00  0.00     0.067 C 
HETATM    4  C4          0       8.996 115.905 -31.220  1.00  0.00     0.103 C 
HETATM    5  O13         0       9.381 115.714 -32.469  1.00  0.00    -0.307 OA
HETATM    6  C14         0      10.177 116.555 -33.091  1.00  0.00     0.107 C 
HETATM    7  C15         0      10.896 116.183 -34.218  1.00  0.00     0.049 C 
HETATM    8  C16         0      11.919 116.981 -34.718  1.00  0.00     0.093 C 
HETATM    9  C18         0      11.823 118.329 -34.393  1.00  0.00     0.048 C 
HETATM   10  C19         0      11.074 118.740 -33.299  1.00  0.00     0.096 C 
HETATM   11  C21         0      10.410 117.812 -32.544  1.00  0.00     0.084 C 
ENDROOT
BRANCH  10  12
HETATM   12  O20         0      11.326 119.984 -32.731  1.00  0.00    -0.359 OA
HETATM   13  H20         0      12.126 120.433 -32.978  1.00  0.00     0.218 HD
ENDBRANCH  10  12
BRANCH   4  14
HETATM   14  C5          0       8.695 114.738 -30.388  1.00  0.00     0.025 C 
HETATM   15  C6          0       8.813 113.435 -30.851  1.00  0.00     0.004 C 
HETATM   16  C7          0       9.302 112.479 -29.966  1.00  0.00     0.026 C 
HETATM   17  C8          0       9.540 112.777 -28.629  1.00  0.00     0.112 C 
HETATM   18  C10         0       8.819 113.857 -28.138  1.00  0.00     0.112 C 
HETATM   19  C12         0       8.415 114.842 -29.032  1.00  0.00     0.028 C 
BRANCH  17  20
HETATM   20  O9          0      10.570 112.164 -27.938  1.00  0.00    -0.357 OA
HETATM   21  H9          0      10.490 111.318 -27.512  1.00  0.00     0.218 HD
ENDBRANCH  17  20
BRANCH  18  22
HETATM   22  O11         0       8.873 114.080 -26.770  1.00  0.00    -0.357 OA
HETATM   23  H11         0       8.724 113.330 -26.206  1.00  0.00     0.218 HD
ENDBRANCH  18  22
ENDBRANCH   4  14
BRANCH   8  24
HETATM   24  O17         0      13.106 116.424 -35.206  1.00  0.00    -0.359 OA
HETATM   25  H17         0      13.428 116.621 -36.077  1.00  0.00     0.218 HD
ENDBRANCH   8  24
TORSDOF 5
ENDMDL
MODEL 7
REMARK VINA RESULT:       0.0      6.246     10.583
REMARK  5 active torsions:
REMARK  status: ('A' for Active; 'I' for Inactive)
REMARK    1  A    between atoms: C4_4  and  C5_5 
REMARK    2  A    between atoms: C8_8  and  O9_9 
REMARK    3  A    between atoms: C10_11  and  O11_12 
REMARK    4  A    between atoms: C16_18  and  O17_19 
REMARK    5  A    between atoms: C19_22  and  O20_23 
ROOT
HETATM    1  O1          0      11.355 121.985 -30.902  1.00  0.00    -0.286 OA
HETATM    2  C2          0      12.595 122.161 -31.060  1.00  0.00     0.201 C 
HETATM    3  C3          0      13.438 122.533 -30.027  1.00  0.00     0.067 C 
HETATM    4  C4          0      14.780 122.820 -30.250  1.00  0.00     0.103 C 
HETATM    5  O13         0      15.257 122.712 -31.477  1.00  0.00    -0.307 OA
HETATM    6  C14         0      14.492 122.400 -32.500  1.00  0.00     0.107 C 
HETATM    7  C15         0      14.871 122.670 -33.807  1.00  0.00     0.049 C 
HETATM    8  C16         0      13.965 122.575 -34.856  1.00  0.00     0.093 C 
HETATM    9  C18         0      12.891 121.723 -34.628  1.00  0.00     0.048 C 
HETATM   10  C19         0      12.514 121.393 -33.334  1.00  0.00     0.096 C 
HETATM   11  C21         0      13.214 121.899 -32.273  1.00  0.00     0.084 C 
ENDROOT
BRANCH  10  12
HETATM   12  O20         0      11.225 120.923 -33.100  1.00  0.00    -0.359 OA
HETATM   13  H20         0      10.773 120.491 -33.814  1.00  0.00     0.218 HD
ENDBRANCH  10  12
BRANCH   4  14
HETATM   14  C5          0      15.430 123.744 -29.319  1.00  0.00     0.025 C 
HETATM   15  C6          0      16.519 124.527 -29.675  1.00  0.00     0.004 C 
HETATM   16  C7          0      16.574 125.822 -29.169  1.00  0.00     0.026 C 
HETATM   17  C8          0      15.652 126.280 -28.234  1.00  0.00     0.112 C 
HETATM   18  C10         0      15.032 125.282 -27.494  1.00  0.00     0.112 C 
HETATM   19  C12         0      14.914 124.018 -28.059  1.00  0.00     0.028 C 
BRANCH  17  20
HETATM   20  O9          0      15.255 127.605 -28.221  1.00  0.00    -0.357 OA
HETATM   21  H9          0      15.825 128.330 -28.450  1.00  0.00     0.218 HD
ENDBRANCH  17  20
BRANCH  18  22
HETATM   22  O11         0      14.247 125.688 -26.424  1.00  0.00    -0.357 OA
HETATM   23  H11         0      14.683 125.788 -25.585  1.00  0.00     0.218 HD
ENDBRANCH  18  22
ENDBRANCH   4  14
BRANCH   8  24
HETATM   24  O17         0      13.955 123.509 -35.898  1.00  0.00    -0.359 OA
HETATM   25  H17         0      13.173 123.678 -36.409  1.00  0.00     0.218 HD
ENDBRANCH   8  24
TORSDOF 5
ENDMDL
MODEL 8
REMARK VINA RESULT:       0.0      5.988     10.439
REMARK  5 active torsions:
REMARK  status: ('A' for Active; 'I' for Inactive)
REMARK    1  A    between atoms: C4_4  and  C5_5 
REMARK    2  A    between atoms: C8_8  and  O9_9 
REMARK    3  A    between atoms: C10_11  and  O11_12 
REMARK    4  A    between atoms: C16_18  and  O17_19 
REMARK    5  A    between atoms: C19_22  and  O20_23 
ROOT
HETATM    1  O1          0      10.191 125.039 -35.252  1.00  0.00    -0.286 OA
HETATM    2  C2          0      10.693 124.770 -34.126  1.00  0.00     0.201 C 
HETATM    3  C3          0      10.827 125.713 -33.120  1.00  0.00     0.067 C 
HETATM    4  C4          0      11.476 125.417 -31.927  1.00  0.00     0.103 C 
HETATM    5  O13         0      11.955 124.198 -31.750  1.00  0.00    -0.307 OA
HETATM    6  C14         0      11.887 123.277 -32.686  1.00  0.00     0.107 C 
HETATM    7  C15         0      12.712 122.162 -32.676  1.00  0.00     0.049 C 
HETATM    8  C16         0      12.817 121.332 -33.785  1.00  0.00     0.093 C 
HETATM    9  C18         0      11.721 121.351 -34.639  1.00  0.00     0.048 C 
HETATM   10  C19         0      10.848 122.431 -34.642  1.00  0.00     0.096 C 
HETATM   11  C21         0      11.060 123.477 -33.786  1.00  0.00     0.084 C 
ENDROOT
BRANCH  10  12
HETATM   12  O20         0      10.042 122.651 -35.755  1.00  0.00    -0.359 OA
HETATM   13  H20         0      10.293 122.242 -36.574  1.00  0.00     0.218 HD
ENDBRANCH  10  12
BRANCH   4  14
HETATM   14  C5          0      12.101 126.531 -31.210  1.00  0.00     0.025 C 
HETATM   15  C6          0      13.187 126.365 -30.363  1.00  0.00     0.004 C 
HETATM   16  C7          0      14.168 127.351 -30.374  1.00  0.00     0.026 C 
HETATM   17  C8          0      14.013 128.527 -31.099  1.00  0.00     0.112 C 
HETATM   18  C10         0      12.696 128.870 -31.373  1.00  0.00     0.112 C 
HETATM   19  C12         0      11.750 127.854 -31.441  1.00  0.00     0.028 C 
BRANCH  17  20
HETATM   20  O9          0      15.106 129.159 -31.667  1.00  0.00    -0.357 OA
HETATM   21  H9          0      15.662 129.772 -31.200  1.00  0.00     0.218 HD
ENDBRANCH  17  20
BRANCH  18  22
HETATM   22  O11         0      12.475 130.123 -31.926  1.00  0.00    -0.357 OA
HETATM   23  H11         0      13.164 130.769 -31.817  1.00  0.00     0.218 HD
ENDBRANCH  18  22
ENDBRANCH   4  14
BRANCH   8  24
HETATM   24  O17         0      14.047 120.794 -34.180  1.00  0.00    -0.359 OA
HETATM   25  H17         0      14.869 121.223 -33.972  1.00  0.00     0.218 HD
ENDBRANCH   8  24
TORSDOF 5
ENDMDL
MODEL 9
REMARK VINA RESULT:       0.0      5.294      7.262
REMARK  5 active torsions:
REMARK  status: ('A' for Active; 'I' for Inactive)
REMARK    1  A    between atoms: C4_4  and  C5_5 
REMARK    2  A    between atoms: C8_8  and  O9_9 
REMARK    3  A    between atoms: C10_11  and  O11_12 
REMARK    4  A    between atoms: C16_18  and  O17_19 
REMARK    5  A    between atoms: C19_22  and  O20_23 
ROOT
HETATM    1  O1          0       9.732 118.542 -30.659  1.00  0.00    -0.286 OA
HETATM    2  C2          0      10.021 119.502 -29.892  1.00  0.00     0.201 C 
HETATM    3  C3          0       9.142 119.995 -28.943  1.00  0.00     0.067 C 
HETATM    4  C4          0       9.446 121.117 -28.182  1.00  0.00     0.103 C 
HETATM    5  O13         0      10.614 121.709 -28.361  1.00  0.00    -0.307 OA
HETATM    6  C14         0      11.469 121.304 -29.275  1.00  0.00     0.107 C 
HETATM    7  C15         0      12.485 122.127 -29.741  1.00  0.00     0.049 C 
HETATM    8  C16         0      13.219 121.796 -30.873  1.00  0.00     0.093 C 
HETATM    9  C18         0      13.262 120.439 -31.169  1.00  0.00     0.048 C 
HETATM   10  C19         0      12.288 119.579 -30.680  1.00  0.00     0.096 C 
HETATM   11  C21         0      11.286 120.069 -29.886  1.00  0.00     0.084 C 
ENDROOT
BRANCH  10  12
HETATM   12  O20         0      12.081 118.356 -31.310  1.00  0.00    -0.359 OA
HETATM   13  H20         0      12.571 118.176 -32.104  1.00  0.00     0.218 HD
ENDBRANCH  10  12
BRANCH   4  14
HETATM   14  C5          0       8.323 121.912 -27.682  1.00  0.00     0.025 C 
HETATM   15  C6          0       8.426 123.268 -27.404  1.00  0.00     0.004 C 
HETATM   16  C7          0       7.339 124.076 -27.724  1.00  0.00     0.026 C 
HETATM   17  C8          0       6.140 123.538 -28.179  1.00  0.00     0.112 C 
HETATM   18  C10         0       5.926 122.213 -27.824  1.00  0.00     0.112 C 
HETATM   19  C12         0       7.033 121.405 -27.593  1.00  0.00     0.028 C 
BRANCH  17  20
HETATM   20  O9          0       5.353 124.227 -29.085  1.00  0.00    -0.357 OA
HETATM   21  H9          0       5.162 123.916 -29.962  1.00  0.00     0.218 HD
ENDBRANCH  17  20
BRANCH  18  22
HETATM   22  O11         0       4.670 121.686 -28.088  1.00  0.00    -0.357 OA
HETATM   23  H11         0       3.921 122.209 -27.826  1.00  0.00     0.218 HD
ENDBRANCH  18  22
ENDBRANCH   4  14
BRANCH   8  24
HETATM   24  O17         0      13.589 122.766 -31.812  1.00  0.00    -0.359 OA
HETATM   25  H17         0      14.216 122.580 -32.500  1.00  0.00     0.218 HD
ENDBRANCH   8  24
TORSDOF 5
ENDMDL
