MODEL 1
REMARK VINA RESULT:      -0.0      0.000      0.000
REMARK  5 active torsions:
REMARK  status: ('A' for Active; 'I' for Inactive)
REMARK    1  A    between atoms: C4_4  and  C5_5 
REMARK    2  A    between atoms: C8_8  and  O9_9 
REMARK    3  A    between atoms: C10_11  and  O11_12 
REMARK    4  A    between atoms: C16_18  and  O17_19 
REMARK    5  A    between atoms: C19_22  and  O20_23 
ROOT
HETATM    1  O1          0      61.064  76.863  21.974  1.00  0.00    -0.286 OA
HETATM    2  C2          0      62.217  76.441  21.682  1.00  0.00     0.201 C 
HETATM    3  C3          0      62.429  75.290  20.943  1.00  0.00     0.067 C 
HETATM    4  C4          0      63.708  74.791  20.722  1.00  0.00     0.103 C 
HETATM    5  O13         0      64.740  75.451  21.216  1.00  0.00    -0.307 OA
HETATM    6  C14         0      64.593  76.528  21.956  1.00  0.00     0.107 C 
HETATM    7  C15         0      65.601  76.984  22.792  1.00  0.00     0.049 C 
HETATM    8  C16         0      65.357  77.959  23.752  1.00  0.00     0.093 C 
HETATM    9  C18         0      64.278  78.792  23.482  1.00  0.00     0.048 C 
HETATM   10  C19         0      63.274  78.385  22.613  1.00  0.00     0.096 C 
HETATM   11  C21         0      63.356  77.162  22.005  1.00  0.00     0.084 C 
ENDROOT
BRANCH  10  12
HETATM   12  O20         0      62.026  78.997  22.682  1.00  0.00    -0.359 OA
HETATM   13  H20         0      61.317  78.620  22.176  1.00  0.00     0.218 HD
ENDBRANCH  10  12
BRANCH   4  14
HETATM   14  C5          0      63.835  73.350  20.495  1.00  0.00     0.025 C 
HETATM   15  C6          0      64.908  72.607  20.964  1.00  0.00     0.004 C 
HETATM   16  C7          0      64.646  71.326  21.440  1.00  0.00     0.026 C 
HETATM   17  C8          0      63.385  70.751  21.331  1.00  0.00     0.112 C 
HETATM   18  C10         0      62.591  71.282  20.323  1.00  0.00     0.112 C 
HETATM   19  C12         0      62.819  72.594  19.925  1.00  0.00     0.028 C 
BRANCH  17  20
HETATM   20  O9          0      62.917  69.878  22.297  1.00  0.00    -0.357 OA
HETATM   21  H9          0      62.574  69.013  22.105  1.00  0.00     0.218 HD
ENDBRANCH  17  20
BRANCH  18  22
HETATM   22  O11         0      61.402  70.623  20.047  1.00  0.00    -0.357 OA
HETATM   23  H11         0      60.959  70.209  20.779  1.00  0.00     0.218 HD
ENDBRANCH  18  22
ENDBRANCH   4  14
BRANCH   8  24
HETATM   24  O17         0      65.930  77.887  25.027  1.00  0.00    -0.359 OA
HETATM   25  H17         0      66.806  78.211  25.199  1.00  0.00     0.218 HD
ENDBRANCH   8  24
TORSDOF 5
ENDMDL
MODEL 2
REMARK VINA RESULT:      -0.0      6.434      7.531
REMARK  5 active torsions:
REMARK  status: ('A' for Active; 'I' for Inactive)
REMARK    1  A    between atoms: C4_4  and  C5_5 
REMARK    2  A    between atoms: C8_8  and  O9_9 
REMARK    3  A    between atoms: C10_11  and  O11_12 
REMARK    4  A    between atoms: C16_18  and  O17_19 
REMARK    5  A    between atoms: C19_22  and  O20_23 
ROOT
HETATM    1  O1          0      59.495  71.249  27.955  1.00  0.00    -0.286 OA
HETATM    2  C2          0      58.772  71.915  27.164  1.00  0.00     0.201 C 
HETATM    3  C3          0      58.543  71.531  25.853  1.00  0.00     0.067 C 
HETATM    4  C4          0      57.827  72.335  24.973  1.00  0.00     0.103 C 
HETATM    5  O13         0      57.340  73.482  25.414  1.00  0.00    -0.307 OA
HETATM    6  C14         0      57.560  73.910  26.638  1.00  0.00     0.107 C 
HETATM    7  C15         0      57.410  75.246  26.982  1.00  0.00     0.049 C 
HETATM    8  C16         0      57.884  75.736  28.193  1.00  0.00     0.093 C 
HETATM    9  C18         0      58.004  74.789  29.203  1.00  0.00     0.048 C 
HETATM   10  C19         0      58.109  73.440  28.896  1.00  0.00     0.096 C 
HETATM   11  C21         0      58.076  73.037  27.588  1.00  0.00     0.084 C 
ENDROOT
BRANCH  10  12
HETATM   12  O20         0      58.654  72.569  29.834  1.00  0.00    -0.359 OA
HETATM   13  H20         0      59.509  72.198  29.652  1.00  0.00     0.218 HD
ENDBRANCH  10  12
BRANCH   4  14
HETATM   14  C5          0      58.126  72.198  23.547  1.00  0.00     0.025 C 
HETATM   15  C6          0      58.113  73.272  22.669  1.00  0.00     0.004 C 
HETATM   16  C7          0      59.086  73.305  21.676  1.00  0.00     0.026 C 
HETATM   17  C8          0      59.960  72.242  21.475  1.00  0.00     0.112 C 
HETATM   18  C10         0      59.501  71.018  21.943  1.00  0.00     0.112 C 
HETATM   19  C12         0      58.592  71.012  22.994  1.00  0.00     0.028 C 
BRANCH  17  20
HETATM   20  O9          0      61.255  72.461  21.039  1.00  0.00    -0.357 OA
HETATM   21  H9          0      61.920  72.898  21.558  1.00  0.00     0.218 HD
ENDBRANCH  17  20
BRANCH  18  22
HETATM   22  O11         0      60.244  69.897  21.603  1.00  0.00    -0.357 OA
HETATM   23  H11         0      60.340  69.709  20.676  1.00  0.00     0.218 HD
ENDBRANCH  18  22
ENDBRANCH   4  14
BRANCH   8  24
HETATM   24  O17         0      58.501  76.989  28.282  1.00  0.00    -0.359 OA
HETATM   25  H17         0      58.040  77.789  28.062  1.00  0.00     0.218 HD
ENDBRANCH   8  24
TORSDOF 5
ENDMDL
MODEL 3
REMARK VINA RESULT:      -0.0     11.297     12.794
REMARK  5 active torsions:
REMARK  status: ('A' for Active; 'I' for Inactive)
REMARK    1  A    between atoms: C4_4  and  C5_5 
REMARK    2  A    between atoms: C8_8  and  O9_9 
REMARK    3  A    between atoms: C10_11  and  O11_12 
REMARK    4  A    between atoms: C16_18  and  O17_19 
REMARK    5  A    between atoms: C19_22  and  O20_23 
ROOT
HETATM    1  O1          0      53.027  84.999  25.876  1.00  0.00    -0.286 OA
HETATM    2  C2          0      53.811  84.258  25.223  1.00  0.00     0.201 C 
HETATM    3  C3          0      53.608  83.940  23.891  1.00  0.00     0.067 C 
HETATM    4  C4          0      54.430  83.038  23.224  1.00  0.00     0.103 C 
HETATM    5  O13         0      55.439  82.493  23.880  1.00  0.00    -0.307 OA
HETATM    6  C14         0      55.654  82.732  25.155  1.00  0.00     0.107 C 
HETATM    7  C15         0      56.430  81.888  25.936  1.00  0.00     0.049 C 
HETATM    8  C16         0      56.447  81.998  27.321  1.00  0.00     0.093 C 
HETATM    9  C18         0      56.111  83.253  27.814  1.00  0.00     0.048 C 
HETATM   10  C19         0      55.375  84.141  27.041  1.00  0.00     0.096 C 
HETATM   11  C21         0      54.990  83.783  25.778  1.00  0.00     0.084 C 
ENDROOT
BRANCH  10  12
HETATM   12  O20         0      54.684  85.175  27.665  1.00  0.00    -0.359 OA
HETATM   13  H20         0      54.306  85.852  27.117  1.00  0.00     0.218 HD
ENDBRANCH  10  12
BRANCH   4  14
HETATM   14  C5          0      53.848  82.311  22.095  1.00  0.00     0.025 C 
HETATM   15  C6          0      54.174  80.995  21.799  1.00  0.00     0.004 C 
HETATM   16  C7          0      53.152  80.162  21.354  1.00  0.00     0.026 C 
HETATM   17  C8          0      51.879  80.650  21.082  1.00  0.00     0.112 C 
HETATM   18  C10         0      51.828  82.008  20.797  1.00  0.00     0.112 C 
HETATM   19  C12         0      52.815  82.832  21.326  1.00  0.00     0.028 C 
BRANCH  17  20
HETATM   20  O9          0      50.758  79.868  21.297  1.00  0.00    -0.357 OA
HETATM   21  H9          0      50.314  79.801  22.134  1.00  0.00     0.218 HD
ENDBRANCH  17  20
BRANCH  18  22
HETATM   22  O11         0      50.618  82.508  20.336  1.00  0.00    -0.357 OA
HETATM   23  H11         0      50.151  83.103  20.911  1.00  0.00     0.218 HD
ENDBRANCH  18  22
ENDBRANCH   4  14
BRANCH   8  24
HETATM   24  O17         0      56.464  80.865  28.142  1.00  0.00    -0.359 OA
HETATM   25  H17         0      56.812  80.894  29.026  1.00  0.00     0.218 HD
ENDBRANCH   8  24
TORSDOF 5
ENDMDL
MODEL 4
REMARK VINA RESULT:      -0.0     10.049     12.491
REMARK  5 active torsions:
REMARK  status: ('A' for Active; 'I' for Inactive)
REMARK    1  A    between atoms: C4_4  and  C5_5 
REMARK    2  A    between atoms: C8_8  and  O9_9 
REMARK    3  A    between atoms: C10_11  and  O11_12 
REMARK    4  A    between atoms: C16_18  and  O17_19 
REMARK    5  A    between atoms: C19_22  and  O20_23 
ROOT
HETATM    1  O1          0      50.941  79.552  25.353  1.00  0.00    -0.286 OA
HETATM    2  C2          0      52.119  79.127  25.202  1.00  0.00     0.201 C 
HETATM    3  C3          0      53.045  79.100  26.231  1.00  0.00     0.067 C 
HETATM    4  C4          0      54.365  78.723  26.013  1.00  0.00     0.103 C 
HETATM    5  O13         0      54.730  78.365  24.795  1.00  0.00    -0.307 OA
HETATM    6  C14         0      53.901  78.408  23.775  1.00  0.00     0.107 C 
HETATM    7  C15         0      54.354  78.426  22.464  1.00  0.00     0.049 C 
HETATM    8  C16         0      53.501  78.727  21.410  1.00  0.00     0.093 C 
HETATM    9  C18         0      52.156  78.478  21.654  1.00  0.00     0.048 C 
HETATM   10  C19         0      51.677  78.407  22.955  1.00  0.00     0.096 C 
HETATM   11  C21         0      52.538  78.566  24.006  1.00  0.00     0.084 C 
ENDROOT
BRANCH  10  12
HETATM   12  O20         0      50.318  78.596  23.191  1.00  0.00    -0.359 OA
HETATM   13  H20         0      49.852  77.923  23.673  1.00  0.00     0.218 HD
ENDBRANCH  10  12
BRANCH   4  14
HETATM   14  C5          0      55.376  79.272  26.919  1.00  0.00     0.025 C 
HETATM   15  C6          0      56.702  79.447  26.549  1.00  0.00     0.004 C 
HETATM   16  C7          0      57.355  80.585  27.012  1.00  0.00     0.026 C 
HETATM   17  C8          0      56.756  81.451  27.921  1.00  0.00     0.112 C 
HETATM   18  C10         0      55.749  80.881  28.687  1.00  0.00     0.112 C 
HETATM   19  C12         0      55.054  79.797  28.164  1.00  0.00     0.028 C 
BRANCH  17  20
HETATM   20  O9          0      57.020  82.809  27.886  1.00  0.00    -0.357 OA
HETATM   21  H9          0      57.895  83.178  27.930  1.00  0.00     0.218 HD
ENDBRANCH  17  20
BRANCH  18  22
HETATM   22  O11         0      55.249  81.642  29.735  1.00  0.00    -0.357 OA
HETATM   23  H11         0      55.392  82.580  29.691  1.00  0.00     0.218 HD
ENDBRANCH  18  22
ENDBRANCH   4  14
BRANCH   8  24
HETATM   24  O17         0      53.919  79.522  20.337  1.00  0.00    -0.359 OA
HETATM   25  H17         0      53.328  80.125  19.902  1.00  0.00     0.218 HD
ENDBRANCH   8  24
TORSDOF 5
ENDMDL
MODEL 5
REMARK VINA RESULT:      -0.0      9.066     10.851
REMARK  5 active torsions:
REMARK  status: ('A' for Active; 'I' for Inactive)
REMARK    1  A    between atoms: C4_4  and  C5_5 
REMARK    2  A    between atoms: C8_8  and  O9_9 
REMARK    3  A    between atoms: C10_11  and  O11_12 
REMARK    4  A    between atoms: C16_18  and  O17_19 
REMARK    5  A    between atoms: C19_22  and  O20_23 
ROOT
HETATM    1  O1          0      63.219  78.552  30.933  1.00  0.00    -0.286 OA
HETATM    2  C2          0      62.575  77.493  30.697  1.00  0.00     0.201 C 
HETATM    3  C3          0      61.472  77.104  31.438  1.00  0.00     0.067 C 
HETATM    4  C4          0      60.843  75.883  31.223  1.00  0.00     0.103 C 
HETATM    5  O13         0      61.305  75.090  30.272  1.00  0.00    -0.307 OA
HETATM    6  C14         0      62.372  75.394  29.565  1.00  0.00     0.107 C 
HETATM    7  C15         0      63.087  74.430  28.869  1.00  0.00     0.049 C 
HETATM    8  C16         0      64.342  74.705  28.340  1.00  0.00     0.093 C 
HETATM    9  C18         0      64.587  76.047  28.075  1.00  0.00     0.048 C 
HETATM   10  C19         0      63.857  77.037  28.719  1.00  0.00     0.096 C 
HETATM   11  C21         0      62.878  76.689  29.609  1.00  0.00     0.084 C 
ENDROOT
BRANCH  10  12
HETATM   12  O20         0      64.376  78.326  28.792  1.00  0.00    -0.359 OA
HETATM   13  H20         0      65.310  78.423  28.937  1.00  0.00     0.218 HD
ENDBRANCH  10  12
BRANCH   4  14
HETATM   14  C5          0      60.135  75.285  32.356  1.00  0.00     0.025 C 
HETATM   15  C6          0      59.940  73.918  32.485  1.00  0.00     0.004 C 
HETATM   16  C7          0      60.037  73.370  33.760  1.00  0.00     0.026 C 
HETATM   17  C8          0      60.188  74.170  34.888  1.00  0.00     0.112 C 
HETATM   18  C10         0      59.743  75.476  34.736  1.00  0.00     0.112 C 
HETATM   19  C12         0      59.737  76.028  33.460  1.00  0.00     0.028 C 
BRANCH  17  20
HETATM   20  O9          0      60.919  73.729  35.977  1.00  0.00    -0.357 OA
HETATM   21  H9          0      60.618  73.057  36.577  1.00  0.00     0.218 HD
ENDBRANCH  17  20
BRANCH  18  22
HETATM   22  O11         0      59.695  76.261  35.879  1.00  0.00    -0.357 OA
HETATM   23  H11         0      60.527  76.510  36.266  1.00  0.00     0.218 HD
ENDBRANCH  18  22
ENDBRANCH   4  14
BRANCH   8  24
HETATM   24  O17         0      65.377  73.765  28.392  1.00  0.00    -0.359 OA
HETATM   25  H17         0      66.220  73.971  28.779  1.00  0.00     0.218 HD
ENDBRANCH   8  24
TORSDOF 5
ENDMDL
MODEL 6
REMARK VINA RESULT:      -0.0      9.726     11.854
REMARK  5 active torsions:
REMARK  status: ('A' for Active; 'I' for Inactive)
REMARK    1  A    between atoms: C4_4  and  C5_5 
REMARK    2  A    between atoms: C8_8  and  O9_9 
REMARK    3  A    between atoms: C10_11  and  O11_12 
REMARK    4  A    between atoms: C16_18  and  O17_19 
REMARK    5  A    between atoms: C19_22  and  O20_23 
ROOT
HETATM    1  O1          0      57.371  79.533  28.241  1.00  0.00    -0.286 OA
HETATM    2  C2          0      56.849  79.360  27.105  1.00  0.00     0.201 C 
HETATM    3  C3          0      57.222  80.088  25.989  1.00  0.00     0.067 C 
HETATM    4  C4          0      56.560  79.950  24.774  1.00  0.00     0.103 C 
HETATM    5  O13         0      55.564  79.085  24.689  1.00  0.00    -0.307 OA
HETATM    6  C14         0      55.146  78.396  25.728  1.00  0.00     0.107 C 
HETATM    7  C15         0      53.889  77.809  25.757  1.00  0.00     0.049 C 
HETATM    8  C16         0      53.355  77.307  26.938  1.00  0.00     0.093 C 
HETATM    9  C18         0      54.291  76.943  27.898  1.00  0.00     0.048 C 
HETATM   10  C19         0      55.573  77.476  27.870  1.00  0.00     0.096 C 
HETATM   11  C21         0      55.922  78.353  26.880  1.00  0.00     0.084 C 
ENDROOT
BRANCH  10  12
HETATM   12  O20         0      56.340  77.462  29.031  1.00  0.00    -0.359 OA
HETATM   13  H20         0      56.175  76.776  29.666  1.00  0.00     0.218 HD
ENDBRANCH  10  12
BRANCH   4  14
HETATM   14  C5          0      56.573  81.101  23.869  1.00  0.00     0.025 C 
HETATM   15  C6          0      55.575  81.333  22.934  1.00  0.00     0.004 C 
HETATM   16  C7          0      55.185  82.652  22.722  1.00  0.00     0.026 C 
HETATM   17  C8          0      55.854  83.715  23.318  1.00  0.00     0.112 C 
HETATM   18  C10         0      57.163  83.440  23.692  1.00  0.00     0.112 C 
HETATM   19  C12         0      57.505  82.125  23.981  1.00  0.00     0.028 C 
BRANCH  17  20
HETATM   20  O9          0      55.175  84.863  23.686  1.00  0.00    -0.357 OA
HETATM   21  H9          0      54.373  85.158  23.270  1.00  0.00     0.218 HD
ENDBRANCH  17  20
BRANCH  18  22
HETATM   22  O11         0      57.933  84.513  24.117  1.00  0.00    -0.357 OA
HETATM   23  H11         0      57.618  84.997  24.871  1.00  0.00     0.218 HD
ENDBRANCH  18  22
ENDBRANCH   4  14
BRANCH   8  24
HETATM   24  O17         0      52.002  77.475  27.256  1.00  0.00    -0.359 OA
HETATM   25  H17         0      51.470  76.753  27.569  1.00  0.00     0.218 HD
ENDBRANCH   8  24
TORSDOF 5
ENDMDL
MODEL 7
REMARK VINA RESULT:      -0.0     17.827     19.704
REMARK  5 active torsions:
REMARK  status: ('A' for Active; 'I' for Inactive)
REMARK    1  A    between atoms: C4_4  and  C5_5 
REMARK    2  A    between atoms: C8_8  and  O9_9 
REMARK    3  A    between atoms: C10_11  and  O11_12 
REMARK    4  A    between atoms: C16_18  and  O17_19 
REMARK    5  A    between atoms: C19_22  and  O20_23 
ROOT
HETATM    1  O1          0      66.655  84.618  40.054  1.00  0.00    -0.286 OA
HETATM    2  C2          0      66.129  85.304  39.136  1.00  0.00     0.201 C 
HETATM    3  C3          0      64.818  85.747  39.187  1.00  0.00     0.067 C 
HETATM    4  C4          0      64.231  86.412  38.117  1.00  0.00     0.103 C 
HETATM    5  O13         0      64.957  86.641  37.037  1.00  0.00    -0.307 OA
HETATM    6  C14         0      66.193  86.209  36.921  1.00  0.00     0.107 C 
HETATM    7  C15         0      66.812  86.087  35.686  1.00  0.00     0.049 C 
HETATM    8  C16         0      68.011  85.398  35.544  1.00  0.00     0.093 C 
HETATM    9  C18         0      68.785  85.325  36.696  1.00  0.00     0.048 C 
HETATM   10  C19         0      68.206  85.489  37.947  1.00  0.00     0.096 C 
HETATM   11  C21         0      66.865  85.743  38.046  1.00  0.00     0.084 C 
ENDROOT
BRANCH  10  12
HETATM   12  O20         0      68.861  84.995  39.070  1.00  0.00    -0.359 OA
HETATM   13  H20         0      68.674  85.399  39.909  1.00  0.00     0.218 HD
ENDBRANCH  10  12
BRANCH   4  14
HETATM   14  C5          0      62.777  86.310  37.981  1.00  0.00     0.025 C 
HETATM   15  C6          0      62.126  86.426  36.761  1.00  0.00     0.004 C 
HETATM   16  C7          0      61.034  85.595  36.532  1.00  0.00     0.026 C 
HETATM   17  C8          0      60.522  84.771  37.528  1.00  0.00     0.112 C 
HETATM   18  C10         0      60.810  85.180  38.823  1.00  0.00     0.112 C 
HETATM   19  C12         0      61.954  85.940  39.037  1.00  0.00     0.028 C 
BRANCH  17  20
HETATM   20  O9          0      59.964  83.544  37.216  1.00  0.00    -0.357 OA
HETATM   21  H9          0      59.033  83.405  37.090  1.00  0.00     0.218 HD
ENDBRANCH  17  20
BRANCH  18  22
HETATM   22  O11         0      60.169  84.506  39.853  1.00  0.00    -0.357 OA
HETATM   23  H11         0      59.440  83.946  39.611  1.00  0.00     0.218 HD
ENDBRANCH  18  22
ENDBRANCH   4  14
BRANCH   8  24
HETATM   24  O17         0      68.250  84.569  34.443  1.00  0.00    -0.359 OA
HETATM   25  H17         0      68.526  83.666  34.548  1.00  0.00     0.218 HD
ENDBRANCH   8  24
TORSDOF 5
ENDMDL
MODEL 8
REMARK VINA RESULT:      -0.0      6.663      8.331
REMARK  5 active torsions:
REMARK  status: ('A' for Active; 'I' for Inactive)
REMARK    1  A    between atoms: C4_4  and  C5_5 
REMARK    2  A    between atoms: C8_8  and  O9_9 
REMARK    3  A    between atoms: C10_11  and  O11_12 
REMARK    4  A    between atoms: C16_18  and  O17_19 
REMARK    5  A    between atoms: C19_22  and  O20_23 
ROOT
HETATM    1  O1          0      58.990  77.071  29.498  1.00  0.00    -0.286 OA
HETATM    2  C2          0      59.629  76.198  28.849  1.00  0.00     0.201 C 
HETATM    3  C3          0      60.478  75.286  29.452  1.00  0.00     0.067 C 
HETATM    4  C4          0      61.249  74.403  28.704  1.00  0.00     0.103 C 
HETATM    5  O13         0      61.146  74.429  27.387  1.00  0.00    -0.307 OA
HETATM    6  C14         0      60.383  75.300  26.763  1.00  0.00     0.107 C 
HETATM    7  C15         0      60.566  75.602  25.421  1.00  0.00     0.049 C 
HETATM    8  C16         0      59.937  76.693  24.834  1.00  0.00     0.093 C 
HETATM    9  C18         0      58.769  77.106  25.465  1.00  0.00     0.048 C 
HETATM   10  C19         0      58.533  76.782  26.794  1.00  0.00     0.096 C 
HETATM   11  C21         0      59.448  76.034  27.484  1.00  0.00     0.084 C 
ENDROOT
BRANCH  10  12
HETATM   12  O20         0      57.621  77.535  27.526  1.00  0.00    -0.359 OA
HETATM   13  H20         0      57.858  77.784  28.412  1.00  0.00     0.218 HD
ENDBRANCH  10  12
BRANCH   4  14
HETATM   14  C5          0      62.498  73.931  29.304  1.00  0.00     0.025 C 
HETATM   15  C6          0      63.588  73.523  28.549  1.00  0.00     0.004 C 
HETATM   16  C7          0      64.856  73.859  29.014  1.00  0.00     0.026 C 
HETATM   17  C8          0      65.042  74.461  30.253  1.00  0.00     0.112 C 
HETATM   18  C10         0      64.015  74.247  31.162  1.00  0.00     0.112 C 
HETATM   19  C12         0      62.739  73.997  30.670  1.00  0.00     0.028 C 
BRANCH  17  20
HETATM   20  O9          0      66.071  75.363  30.455  1.00  0.00    -0.357 OA
HETATM   21  H9          0      66.032  76.077  31.081  1.00  0.00     0.218 HD
ENDBRANCH  17  20
BRANCH  18  22
HETATM   22  O11         0      64.234  74.662  32.468  1.00  0.00    -0.357 OA
HETATM   23  H11         0      64.105  75.585  32.653  1.00  0.00     0.218 HD
ENDBRANCH  18  22
ENDBRANCH   4  14
BRANCH   8  24
HETATM   24  O17         0      60.599  77.506  23.907  1.00  0.00    -0.359 OA
HETATM   25  H17         0      60.260  78.357  23.657  1.00  0.00     0.218 HD
ENDBRANCH   8  24
TORSDOF 5
ENDMDL
MODEL 9
REMARK VINA RESULT:      -0.0      8.752     11.376
REMARK  5 active torsions:
REMARK  status: ('A' for Active; 'I' for Inactive)
REMARK    1  A    between atoms: C4_4  and  C5_5 
REMARK    2  A    between atoms: C8_8  and  O9_9 
REMARK    3  A    between atoms: C10_11  and  O11_12 
REMARK    4  A    between atoms: C16_18  and  O17_19 
REMARK    5  A    between atoms: C19_22  and  O20_23 
ROOT
HETATM    1  O1          0      62.457  76.546  30.932  1.00  0.00    -0.286 OA
HETATM    2  C2          0      62.369  77.772  31.219  1.00  0.00     0.201 C 
HETATM    3  C3          0      61.766  78.696  30.383  1.00  0.00     0.067 C 
HETATM    4  C4          0      61.773  80.056  30.675  1.00  0.00     0.103 C 
HETATM    5  O13         0      62.355  80.463  31.789  1.00  0.00    -0.307 OA
HETATM    6  C14         0      62.974  79.631  32.599  1.00  0.00     0.107 C 
HETATM    7  C15         0      63.906  80.073  33.527  1.00  0.00     0.049 C 
HETATM    8  C16         0      64.737  79.181  34.195  1.00  0.00     0.093 C 
HETATM    9  C18         0      64.246  77.885  34.297  1.00  0.00     0.048 C 
HETATM   10  C19         0      63.279  77.426  33.413  1.00  0.00     0.096 C 
HETATM   11  C21         0      62.792  78.261  32.445  1.00  0.00     0.084 C 
ENDROOT
BRANCH  10  12
HETATM   12  O20         0      63.116  76.055  33.235  1.00  0.00    -0.359 OA
HETATM   13  H20         0      62.858  75.746  32.375  1.00  0.00     0.218 HD
ENDBRANCH  10  12
BRANCH   4  14
HETATM   14  C5          0      61.687  80.984  29.546  1.00  0.00     0.025 C 
HETATM   15  C6          0      62.205  82.270  29.588  1.00  0.00     0.004 C 
HETATM   16  C7          0      62.810  82.759  28.435  1.00  0.00     0.026 C 
HETATM   17  C8          0      62.784  82.049  27.240  1.00  0.00     0.112 C 
HETATM   18  C10         0      61.745  81.134  27.132  1.00  0.00     0.112 C 
HETATM   19  C12         0      61.215  80.596  28.298  1.00  0.00     0.028 C 
BRANCH  17  20
HETATM   20  O9          0      63.841  82.120  26.350  1.00  0.00    -0.357 OA
HETATM   21  H9          0      63.786  81.843  25.442  1.00  0.00     0.218 HD
ENDBRANCH  17  20
BRANCH  18  22
HETATM   22  O11         0      61.559  80.537  25.893  1.00  0.00    -0.357 OA
HETATM   23  H11         0      62.198  80.739  25.218  1.00  0.00     0.218 HD
ENDBRANCH  18  22
ENDBRANCH   4  14
BRANCH   8  24
HETATM   24  O17         0      66.082  79.480  34.437  1.00  0.00    -0.359 OA
HETATM   25  H17         0      66.679  79.702  33.732  1.00  0.00     0.218 HD
ENDBRANCH   8  24
TORSDOF 5
ENDMDL
