MODEL 1
REMARK VINA RESULT:      -3.1      0.000      0.000
REMARK  5 active torsions:
REMARK  status: ('A' for Active; 'I' for Inactive)
REMARK    1  A    between atoms: C4_4  and  C5_5 
REMARK    2  A    between atoms: C8_8  and  O9_9 
REMARK    3  A    between atoms: C10_11  and  O11_12 
REMARK    4  A    between atoms: C16_18  and  O17_19 
REMARK    5  A    between atoms: C19_22  and  O20_23 
ROOT
HETATM    1  O1          0      59.750   7.766 -22.345  1.00  0.00    -0.286 OA
HETATM    2  C2          0      58.848   8.084 -23.168  1.00  0.00     0.201 C 
HETATM    3  C3          0      58.310   9.358 -23.237  1.00  0.00     0.067 C 
HETATM    4  C4          0      57.246   9.655 -24.082  1.00  0.00     0.103 C 
HETATM    5  O13         0      56.756   8.695 -24.847  1.00  0.00    -0.307 OA
HETATM    6  C14         0      57.205   7.460 -24.793  1.00  0.00     0.107 C 
HETATM    7  C15         0      56.462   6.391 -25.272  1.00  0.00     0.049 C 
HETATM    8  C16         0      56.818   5.079 -24.986  1.00  0.00     0.093 C 
HETATM    9  C18         0      58.163   4.887 -24.692  1.00  0.00     0.048 C 
HETATM   10  C19         0      58.948   5.945 -24.255  1.00  0.00     0.096 C 
HETATM   11  C21         0      58.397   7.192 -24.129  1.00  0.00     0.084 C 
ENDROOT
BRANCH  10  12
HETATM   12  O20         0      60.125   5.679 -23.563  1.00  0.00    -0.359 OA
HETATM   13  H20         0      60.947   5.787 -24.025  1.00  0.00     0.218 HD
ENDBRANCH  10  12
BRANCH   4  14
HETATM   14  C5          0      56.371  10.762 -23.692  1.00  0.00     0.025 C 
HETATM   15  C6          0      55.095  10.929 -24.210  1.00  0.00     0.004 C 
HETATM   16  C7          0      54.102  11.379 -23.346  1.00  0.00     0.026 C 
HETATM   17  C8          0      54.392  11.777 -22.045  1.00  0.00     0.112 C 
HETATM   18  C10         0      55.708  12.170 -21.840  1.00  0.00     0.112 C 
HETATM   19  C12         0      56.693  11.639 -22.665  1.00  0.00     0.028 C 
BRANCH  17  20
HETATM   20  O9          0      53.481  11.581 -21.023  1.00  0.00    -0.357 OA
HETATM   21  H9          0      52.719  11.017 -21.096  1.00  0.00     0.218 HD
ENDBRANCH  17  20
BRANCH  18  22
HETATM   22  O11         0      56.006  12.753 -20.616  1.00  0.00    -0.357 OA
HETATM   23  H11         0      55.437  12.537 -19.887  1.00  0.00     0.218 HD
ENDBRANCH  18  22
ENDBRANCH   4  14
BRANCH   8  24
HETATM   24  O17         0      55.854   4.109 -24.688  1.00  0.00    -0.359 OA
HETATM   25  H17         0      55.984   3.193 -24.904  1.00  0.00     0.218 HD
ENDBRANCH   8  24
TORSDOF 5
ENDMDL
MODEL 2
REMARK VINA RESULT:      -2.9      3.264      7.823
REMARK  5 active torsions:
REMARK  status: ('A' for Active; 'I' for Inactive)
REMARK    1  A    between atoms: C4_4  and  C5_5 
REMARK    2  A    between atoms: C8_8  and  O9_9 
REMARK    3  A    between atoms: C10_11  and  O11_12 
REMARK    4  A    between atoms: C16_18  and  O17_19 
REMARK    5  A    between atoms: C19_22  and  O20_23 
ROOT
HETATM    1  O1          0      53.487   5.502 -24.129  1.00  0.00    -0.286 OA
HETATM    2  C2          0      54.517   5.389 -24.848  1.00  0.00     0.201 C 
HETATM    3  C3          0      55.079   4.165 -25.168  1.00  0.00     0.067 C 
HETATM    4  C4          0      56.273   4.074 -25.875  1.00  0.00     0.103 C 
HETATM    5  O13         0      56.866   5.188 -26.265  1.00  0.00    -0.307 OA
HETATM    6  C14         0      56.395   6.376 -25.955  1.00  0.00     0.107 C 
HETATM    7  C15         0      57.190   7.513 -26.001  1.00  0.00     0.049 C 
HETATM    8  C16         0      56.770   8.711 -25.436  1.00  0.00     0.093 C 
HETATM    9  C18         0      55.393   8.856 -25.325  1.00  0.00     0.048 C 
HETATM   10  C19         0      54.564   7.742 -25.322  1.00  0.00     0.096 C 
HETATM   11  C21         0      55.106   6.492 -25.447  1.00  0.00     0.084 C 
ENDROOT
BRANCH  10  12
HETATM   12  O20         0      53.284   7.848 -24.786  1.00  0.00    -0.359 OA
HETATM   13  H20         0      52.690   8.479 -25.173  1.00  0.00     0.218 HD
ENDBRANCH  10  12
BRANCH   4  14
HETATM   14  C5          0      57.089   2.878 -25.659  1.00  0.00     0.025 C 
HETATM   15  C6          0      58.472   2.881 -25.776  1.00  0.00     0.004 C 
HETATM   16  C7          0      59.196   2.115 -24.868  1.00  0.00     0.026 C 
HETATM   17  C8          0      58.567   1.269 -23.961  1.00  0.00     0.112 C 
HETATM   18  C10         0      57.293   0.864 -24.335  1.00  0.00     0.112 C 
HETATM   19  C12         0      56.557   1.690 -25.176  1.00  0.00     0.028 C 
BRANCH  17  20
HETATM   20  O9          0      59.107   1.046 -22.707  1.00  0.00    -0.357 OA
HETATM   21  H9          0      59.165   1.710 -22.031  1.00  0.00     0.218 HD
ENDBRANCH  17  20
BRANCH  18  22
HETATM   22  O11         0      56.696  -0.125 -23.565  1.00  0.00    -0.357 OA
HETATM   23  H11         0      56.110   0.163 -22.875  1.00  0.00     0.218 HD
ENDBRANCH  18  22
ENDBRANCH   4  14
BRANCH   8  24
HETATM   24  O17         0      57.656   9.537 -24.736  1.00  0.00    -0.359 OA
HETATM   25  H17         0      57.497  10.468 -24.635  1.00  0.00     0.218 HD
ENDBRANCH   8  24
TORSDOF 5
ENDMDL
MODEL 3
REMARK VINA RESULT:      -2.9      3.256      7.170
REMARK  5 active torsions:
REMARK  status: ('A' for Active; 'I' for Inactive)
REMARK    1  A    between atoms: C4_4  and  C5_5 
REMARK    2  A    between atoms: C8_8  and  O9_9 
REMARK    3  A    between atoms: C10_11  and  O11_12 
REMARK    4  A    between atoms: C16_18  and  O17_19 
REMARK    5  A    between atoms: C19_22  and  O20_23 
ROOT
HETATM    1  O1          0      53.441   7.828 -25.450  1.00  0.00    -0.286 OA
HETATM    2  C2          0      54.198   6.832 -25.289  1.00  0.00     0.201 C 
HETATM    3  C3          0      53.733   5.527 -25.292  1.00  0.00     0.067 C 
HETATM    4  C4          0      54.572   4.455 -25.010  1.00  0.00     0.103 C 
HETATM    5  O13         0      55.845   4.695 -24.754  1.00  0.00    -0.307 OA
HETATM    6  C14         0      56.330   5.916 -24.702  1.00  0.00     0.107 C 
HETATM    7  C15         0      57.525   6.202 -24.058  1.00  0.00     0.049 C 
HETATM    8  C16         0      57.903   7.511 -23.784  1.00  0.00     0.093 C 
HETATM    9  C18         0      57.340   8.470 -24.617  1.00  0.00     0.048 C 
HETATM   10  C19         0      56.169   8.201 -25.313  1.00  0.00     0.096 C 
HETATM   11  C21         0      55.573   6.976 -25.191  1.00  0.00     0.084 C 
ENDROOT
BRANCH  10  12
HETATM   12  O20         0      55.395   9.260 -25.776  1.00  0.00    -0.359 OA
HETATM   13  H20         0      55.706  10.143 -25.615  1.00  0.00     0.218 HD
ENDBRANCH  10  12
BRANCH   4  14
HETATM   14  C5          0      53.954   3.252 -24.448  1.00  0.00     0.025 C 
HETATM   15  C6          0      54.297   1.971 -24.854  1.00  0.00     0.004 C 
HETATM   16  C7          0      54.356   0.980 -23.880  1.00  0.00     0.026 C 
HETATM   17  C8          0      53.957   1.221 -22.569  1.00  0.00     0.112 C 
HETATM   18  C10         0      53.068   2.277 -22.419  1.00  0.00     0.112 C 
HETATM   19  C12         0      53.090   3.297 -23.362  1.00  0.00     0.028 C 
BRANCH  17  20
HETATM   20  O9          0      54.578   0.582 -21.510  1.00  0.00    -0.357 OA
HETATM   21  H9          0      54.337  -0.284 -21.201  1.00  0.00     0.218 HD
ENDBRANCH  17  20
BRANCH  18  22
HETATM   22  O11         0      52.494   2.441 -21.166  1.00  0.00    -0.357 OA
HETATM   23  H11         0      52.729   1.806 -20.499  1.00  0.00     0.218 HD
ENDBRANCH  18  22
ENDBRANCH   4  14
BRANCH   8  24
HETATM   24  O17         0      58.517   7.855 -22.575  1.00  0.00    -0.359 OA
HETATM   25  H17         0      59.209   8.503 -22.533  1.00  0.00     0.218 HD
ENDBRANCH   8  24
TORSDOF 5
ENDMDL
MODEL 4
REMARK VINA RESULT:      -2.6      4.657      8.159
REMARK  5 active torsions:
REMARK  status: ('A' for Active; 'I' for Inactive)
REMARK    1  A    between atoms: C4_4  and  C5_5 
REMARK    2  A    between atoms: C8_8  and  O9_9 
REMARK    3  A    between atoms: C10_11  and  O11_12 
REMARK    4  A    between atoms: C16_18  and  O17_19 
REMARK    5  A    between atoms: C19_22  and  O20_23 
ROOT
HETATM    1  O1          0      50.730   3.074 -24.987  1.00  0.00    -0.286 OA
HETATM    2  C2          0      51.686   3.535 -24.305  1.00  0.00     0.201 C 
HETATM    3  C3          0      52.741   4.234 -24.866  1.00  0.00     0.067 C 
HETATM    4  C4          0      53.832   4.641 -24.107  1.00  0.00     0.103 C 
HETATM    5  O13         0      53.843   4.367 -22.814  1.00  0.00    -0.307 OA
HETATM    6  C14         0      52.886   3.674 -22.238  1.00  0.00     0.107 C 
HETATM    7  C15         0      53.071   3.048 -21.014  1.00  0.00     0.049 C 
HETATM    8  C16         0      52.159   2.116 -20.534  1.00  0.00     0.093 C 
HETATM    9  C18         0      50.869   2.245 -21.037  1.00  0.00     0.048 C 
HETATM   10  C19         0      50.642   2.906 -22.236  1.00  0.00     0.096 C 
HETATM   11  C21         0      51.695   3.450 -22.921  1.00  0.00     0.084 C 
ENDROOT
BRANCH  10  12
HETATM   12  O20         0      49.465   2.660 -22.936  1.00  0.00    -0.359 OA
HETATM   13  H20         0      49.507   2.645 -23.885  1.00  0.00     0.218 HD
ENDBRANCH  10  12
BRANCH   4  14
HETATM   14  C5          0      55.109   4.806 -24.804  1.00  0.00     0.025 C 
HETATM   15  C6          0      55.894   5.942 -24.676  1.00  0.00     0.004 C 
HETATM   16  C7          0      57.274   5.771 -24.632  1.00  0.00     0.026 C 
HETATM   17  C8          0      57.861   4.528 -24.844  1.00  0.00     0.112 C 
HETATM   18  C10         0      57.083   3.635 -25.568  1.00  0.00     0.112 C 
HETATM   19  C12         0      55.701   3.777 -25.525  1.00  0.00     0.028 C 
BRANCH  17  20
HETATM   20  O9          0      59.030   4.176 -24.192  1.00  0.00    -0.357 OA
HETATM   21  H9          0      59.521   3.384 -24.379  1.00  0.00     0.218 HD
ENDBRANCH  17  20
BRANCH  18  22
HETATM   22  O11         0      57.691   2.454 -25.969  1.00  0.00    -0.357 OA
HETATM   23  H11         0      58.526   2.530 -26.417  1.00  0.00     0.218 HD
ENDBRANCH  18  22
ENDBRANCH   4  14
BRANCH   8  24
HETATM   24  O17         0      52.579   0.955 -19.876  1.00  0.00    -0.359 OA
HETATM   25  H17         0      51.960   0.354 -19.480  1.00  0.00     0.218 HD
ENDBRANCH   8  24
TORSDOF 5
ENDMDL
MODEL 5
REMARK VINA RESULT:      -2.4      6.483      8.126
REMARK  5 active torsions:
REMARK  status: ('A' for Active; 'I' for Inactive)
REMARK    1  A    between atoms: C4_4  and  C5_5 
REMARK    2  A    between atoms: C8_8  and  O9_9 
REMARK    3  A    between atoms: C10_11  and  O11_12 
REMARK    4  A    between atoms: C16_18  and  O17_19 
REMARK    5  A    between atoms: C19_22  and  O20_23 
ROOT
HETATM    1  O1          0      49.333   2.383 -23.386  1.00  0.00    -0.286 OA
HETATM    2  C2          0      49.676   3.195 -22.483  1.00  0.00     0.201 C 
HETATM    3  C3          0      49.245   4.510 -22.453  1.00  0.00     0.067 C 
HETATM    4  C4          0      49.719   5.410 -21.506  1.00  0.00     0.103 C 
HETATM    5  O13         0      50.587   4.986 -20.605  1.00  0.00    -0.307 OA
HETATM    6  C14         0      51.058   3.758 -20.612  1.00  0.00     0.107 C 
HETATM    7  C15         0      52.231   3.421 -19.952  1.00  0.00     0.049 C 
HETATM    8  C16         0      52.856   2.199 -20.170  1.00  0.00     0.093 C 
HETATM    9  C18         0      52.020   1.184 -20.619  1.00  0.00     0.048 C 
HETATM   10  C19         0      50.816   1.485 -21.242  1.00  0.00     0.096 C 
HETATM   11  C21         0      50.442   2.791 -21.400  1.00  0.00     0.084 C 
ENDROOT
BRANCH  10  12
HETATM   12  O20         0      50.214   0.531 -22.056  1.00  0.00    -0.359 OA
HETATM   13  H20         0      49.278   0.397 -21.968  1.00  0.00     0.218 HD
ENDBRANCH  10  12
BRANCH   4  14
HETATM   14  C5          0      49.718   6.828 -21.870  1.00  0.00     0.025 C 
HETATM   15  C6          0      49.106   7.803 -21.097  1.00  0.00     0.004 C 
HETATM   16  C7          0      49.746   9.034 -20.986  1.00  0.00     0.026 C 
HETATM   17  C8          0      50.885   9.333 -21.725  1.00  0.00     0.112 C 
HETATM   18  C10         0      51.036   8.585 -22.885  1.00  0.00     0.112 C 
HETATM   19  C12         0      50.458   7.323 -22.937  1.00  0.00     0.028 C 
BRANCH  17  20
HETATM   20  O9          0      51.869  10.157 -21.208  1.00  0.00    -0.357 OA
HETATM   21  H9          0      52.633  10.439 -21.699  1.00  0.00     0.218 HD
ENDBRANCH  17  20
BRANCH  18  22
HETATM   22  O11         0      52.049   8.969 -23.753  1.00  0.00    -0.357 OA
HETATM   23  H11         0      52.057   8.561 -24.611  1.00  0.00     0.218 HD
ENDBRANCH  18  22
ENDBRANCH   4  14
BRANCH   8  24
HETATM   24  O17         0      54.249   2.097 -20.257  1.00  0.00    -0.359 OA
HETATM   25  H17         0      54.806   2.205 -19.495  1.00  0.00     0.218 HD
ENDBRANCH   8  24
TORSDOF 5
ENDMDL
MODEL 6
REMARK VINA RESULT:      -2.3      3.127      3.704
REMARK  5 active torsions:
REMARK  status: ('A' for Active; 'I' for Inactive)
REMARK    1  A    between atoms: C4_4  and  C5_5 
REMARK    2  A    between atoms: C8_8  and  O9_9 
REMARK    3  A    between atoms: C10_11  and  O11_12 
REMARK    4  A    between atoms: C16_18  and  O17_19 
REMARK    5  A    between atoms: C19_22  and  O20_23 
ROOT
HETATM    1  O1          0      56.384   7.822 -26.418  1.00  0.00    -0.286 OA
HETATM    2  C2          0      55.212   7.764 -25.954  1.00  0.00     0.201 C 
HETATM    3  C3          0      54.514   8.884 -25.538  1.00  0.00     0.067 C 
HETATM    4  C4          0      53.265   8.783 -24.935  1.00  0.00     0.103 C 
HETATM    5  O13         0      52.732   7.584 -24.779  1.00  0.00    -0.307 OA
HETATM    6  C14         0      53.368   6.485 -25.123  1.00  0.00     0.107 C 
HETATM    7  C15         0      53.013   5.245 -24.613  1.00  0.00     0.049 C 
HETATM    8  C16         0      53.835   4.136 -24.773  1.00  0.00     0.093 C 
HETATM    9  C18         0      54.694   4.195 -25.864  1.00  0.00     0.048 C 
HETATM   10  C19         0      55.034   5.417 -26.429  1.00  0.00     0.096 C 
HETATM   11  C21         0      54.506   6.572 -25.918  1.00  0.00     0.084 C 
ENDROOT
BRANCH  10  12
HETATM   12  O20         0      56.189   5.513 -27.199  1.00  0.00    -0.359 OA
HETATM   13  H20         0      56.681   4.718 -27.363  1.00  0.00     0.218 HD
ENDBRANCH  10  12
BRANCH   4  14
HETATM   14  C5          0      52.876   9.852 -24.014  1.00  0.00     0.025 C 
HETATM   15  C6          0      51.776   9.759 -23.175  1.00  0.00     0.004 C 
HETATM   16  C7          0      51.894  10.293 -21.896  1.00  0.00     0.026 C 
HETATM   17  C8          0      53.018  11.015 -21.508  1.00  0.00     0.112 C 
HETATM   18  C10         0      53.733  11.581 -22.554  1.00  0.00     0.112 C 
HETATM   19  C12         0      53.665  10.976 -23.804  1.00  0.00     0.028 C 
BRANCH  17  20
HETATM   20  O9          0      53.472  10.971 -20.202  1.00  0.00    -0.357 OA
HETATM   21  H9          0      53.193  11.578 -19.525  1.00  0.00     0.218 HD
ENDBRANCH  17  20
BRANCH  18  22
HETATM   22  O11         0      54.749  12.464 -22.216  1.00  0.00    -0.357 OA
HETATM   23  H11         0      54.567  13.390 -22.325  1.00  0.00     0.218 HD
ENDBRANCH  18  22
ENDBRANCH   4  14
BRANCH   8  24
HETATM   24  O17         0      54.019   3.209 -23.741  1.00  0.00    -0.359 OA
HETATM   25  H17         0      53.354   2.567 -23.523  1.00  0.00     0.218 HD
ENDBRANCH   8  24
TORSDOF 5
ENDMDL
MODEL 7
REMARK VINA RESULT:      -2.2      4.796      7.682
REMARK  5 active torsions:
REMARK  status: ('A' for Active; 'I' for Inactive)
REMARK    1  A    between atoms: C4_4  and  C5_5 
REMARK    2  A    between atoms: C8_8  and  O9_9 
REMARK    3  A    between atoms: C10_11  and  O11_12 
REMARK    4  A    between atoms: C16_18  and  O17_19 
REMARK    5  A    between atoms: C19_22  and  O20_23 
ROOT
HETATM    1  O1          0      52.379   5.383 -26.830  1.00  0.00    -0.286 OA
HETATM    2  C2          0      53.145   5.236 -25.839  1.00  0.00     0.201 C 
HETATM    3  C3          0      54.510   5.459 -25.905  1.00  0.00     0.067 C 
HETATM    4  C4          0      55.345   5.191 -24.827  1.00  0.00     0.103 C 
HETATM    5  O13         0      54.811   4.731 -23.709  1.00  0.00    -0.307 OA
HETATM    6  C14         0      53.527   4.466 -23.605  1.00  0.00     0.107 C 
HETATM    7  C15         0      53.031   3.631 -22.614  1.00  0.00     0.049 C 
HETATM    8  C16         0      51.727   3.154 -22.660  1.00  0.00     0.093 C 
HETATM    9  C18         0      50.840   3.938 -23.387  1.00  0.00     0.048 C 
HETATM   10  C19         0      51.305   4.819 -24.353  1.00  0.00     0.096 C 
HETATM   11  C21         0      52.650   4.928 -24.580  1.00  0.00     0.084 C 
ENDROOT
BRANCH  10  12
HETATM   12  O20         0      50.438   5.257 -25.349  1.00  0.00    -0.359 OA
HETATM   13  H20         0      50.496   6.165 -25.622  1.00  0.00     0.218 HD
ENDBRANCH  10  12
BRANCH   4  14
HETATM   14  C5          0      56.742   4.868 -25.126  1.00  0.00     0.025 C 
HETATM   15  C6          0      57.782   5.760 -24.911  1.00  0.00     0.004 C 
HETATM   16  C7          0      58.985   5.245 -24.437  1.00  0.00     0.026 C 
HETATM   17  C8          0      59.192   3.876 -24.309  1.00  0.00     0.112 C 
HETATM   18  C10         0      58.381   3.089 -25.115  1.00  0.00     0.112 C 
HETATM   19  C12         0      57.147   3.595 -25.505  1.00  0.00     0.028 C 
BRANCH  17  20
HETATM   20  O9          0      59.993   3.371 -23.299  1.00  0.00    -0.357 OA
HETATM   21  H9          0      59.703   2.719 -22.672  1.00  0.00     0.218 HD
ENDBRANCH  17  20
BRANCH  18  22
HETATM   22  O11         0      58.673   1.733 -25.168  1.00  0.00    -0.357 OA
HETATM   23  H11         0      58.672   1.261 -24.344  1.00  0.00     0.218 HD
ENDBRANCH  18  22
ENDBRANCH   4  14
BRANCH   8  24
HETATM   24  O17         0      51.419   1.837 -22.298  1.00  0.00    -0.359 OA
HETATM   25  H17         0      51.139   1.614 -21.418  1.00  0.00     0.218 HD
ENDBRANCH   8  24
TORSDOF 5
ENDMDL
MODEL 8
REMARK VINA RESULT:      -2.2      2.125      7.057
REMARK  5 active torsions:
REMARK  status: ('A' for Active; 'I' for Inactive)
REMARK    1  A    between atoms: C4_4  and  C5_5 
REMARK    2  A    between atoms: C8_8  and  O9_9 
REMARK    3  A    between atoms: C10_11  and  O11_12 
REMARK    4  A    between atoms: C16_18  and  O17_19 
REMARK    5  A    between atoms: C19_22  and  O20_23 
ROOT
HETATM    1  O1          0      53.776  13.825 -24.405  1.00  0.00    -0.286 OA
HETATM    2  C2          0      54.492  13.210 -23.568  1.00  0.00     0.201 C 
HETATM    3  C3          0      55.759  12.739 -23.867  1.00  0.00     0.067 C 
HETATM    4  C4          0      56.485  11.976 -22.960  1.00  0.00     0.103 C 
HETATM    5  O13         0      55.952  11.716 -21.779  1.00  0.00    -0.307 OA
HETATM    6  C14         0      54.738  12.107 -21.458  1.00  0.00     0.107 C 
HETATM    7  C15         0      54.031  11.519 -20.420  1.00  0.00     0.049 C 
HETATM    8  C16         0      52.672  11.753 -20.249  1.00  0.00     0.093 C 
HETATM    9  C18         0      52.210  12.948 -20.787  1.00  0.00     0.048 C 
HETATM   10  C19         0      52.917  13.588 -21.796  1.00  0.00     0.096 C 
HETATM   11  C21         0      54.088  13.047 -22.252  1.00  0.00     0.084 C 
ENDROOT
BRANCH  10  12
HETATM   12  O20         0      52.261  14.505 -22.611  1.00  0.00    -0.359 OA
HETATM   13  H20         0      51.664  14.168 -23.268  1.00  0.00     0.218 HD
ENDBRANCH  10  12
BRANCH   4  14
HETATM   14  C5          0      57.472  11.044 -23.508  1.00  0.00     0.025 C 
HETATM   15  C6          0      58.837  11.190 -23.305  1.00  0.00     0.004 C 
HETATM   16  C7          0      59.585  10.035 -23.102  1.00  0.00     0.026 C 
HETATM   17  C8          0      59.023   8.769 -23.228  1.00  0.00     0.112 C 
HETATM   18  C10         0      57.886   8.717 -24.024  1.00  0.00     0.112 C 
HETATM   19  C12         0      57.109   9.863 -24.142  1.00  0.00     0.028 C 
BRANCH  17  20
HETATM   20  O9          0      59.459   7.718 -22.442  1.00  0.00    -0.357 OA
HETATM   21  H9          0      59.912   7.830 -21.614  1.00  0.00     0.218 HD
ENDBRANCH  17  20
BRANCH  18  22
HETATM   22  O11         0      57.396   7.457 -24.337  1.00  0.00    -0.357 OA
HETATM   23  H11         0      56.567   7.421 -24.801  1.00  0.00     0.218 HD
ENDBRANCH  18  22
ENDBRANCH   4  14
BRANCH   8  24
HETATM   24  O17         0      51.797  10.727 -19.875  1.00  0.00    -0.359 OA
HETATM   25  H17         0      50.968  10.909 -19.447  1.00  0.00     0.218 HD
ENDBRANCH   8  24
TORSDOF 5
ENDMDL
MODEL 9
REMARK VINA RESULT:      -2.2      3.963      6.974
REMARK  5 active torsions:
REMARK  status: ('A' for Active; 'I' for Inactive)
REMARK    1  A    between atoms: C4_4  and  C5_5 
REMARK    2  A    between atoms: C8_8  and  O9_9 
REMARK    3  A    between atoms: C10_11  and  O11_12 
REMARK    4  A    between atoms: C16_18  and  O17_19 
REMARK    5  A    between atoms: C19_22  and  O20_23 
ROOT
HETATM    1  O1          0      53.006   3.675 -27.043  1.00  0.00    -0.286 OA
HETATM    2  C2          0      53.474   4.135 -25.966  1.00  0.00     0.201 C 
HETATM    3  C3          0      54.670   4.830 -25.903  1.00  0.00     0.067 C 
HETATM    4  C4          0      55.214   5.236 -24.690  1.00  0.00     0.103 C 
HETATM    5  O13         0      54.556   4.965 -23.577  1.00  0.00    -0.307 OA
HETATM    6  C14         0      53.436   4.275 -23.577  1.00  0.00     0.107 C 
HETATM    7  C15         0      52.962   3.651 -22.432  1.00  0.00     0.049 C 
HETATM    8  C16         0      51.930   2.723 -22.491  1.00  0.00     0.093 C 
HETATM    9  C18         0      51.085   2.854 -23.587  1.00  0.00     0.048 C 
HETATM   10  C19         0      51.511   3.513 -24.731  1.00  0.00     0.096 C 
HETATM   11  C21         0      52.767   4.054 -24.776  1.00  0.00     0.084 C 
ENDROOT
BRANCH  10  12
HETATM   12  O20         0      50.863   3.269 -25.938  1.00  0.00    -0.359 OA
HETATM   13  H20         0      51.389   3.241 -26.728  1.00  0.00     0.218 HD
ENDBRANCH  10  12
BRANCH   4  14
HETATM   14  C5          0      56.668   5.396 -24.628  1.00  0.00     0.025 C 
HETATM   15  C6          0      57.551   4.452 -25.131  1.00  0.00     0.004 C 
HETATM   16  C7          0      58.698   4.915 -25.766  1.00  0.00     0.026 C 
HETATM   17  C8          0      59.027   6.267 -25.784  1.00  0.00     0.112 C 
HETATM   18  C10         0      58.463   7.014 -24.759  1.00  0.00     0.112 C 
HETATM   19  C12         0      57.270   6.572 -24.199  1.00  0.00     0.028 C 
BRANCH  17  20
HETATM   20  O9          0      59.685   6.822 -26.867  1.00  0.00    -0.357 OA
HETATM   21  H9          0      59.552   6.543 -27.766  1.00  0.00     0.218 HD
ENDBRANCH  17  20
BRANCH  18  22
HETATM   22  O11         0      58.905   8.322 -24.618  1.00  0.00    -0.357 OA
HETATM   23  H11         0      58.275   8.956 -24.297  1.00  0.00     0.218 HD
ENDBRANCH  18  22
ENDBRANCH   4  14
BRANCH   8  24
HETATM   24  O17         0      51.947   1.562 -21.709  1.00  0.00    -0.359 OA
HETATM   25  H17         0      51.228   1.340 -21.130  1.00  0.00     0.218 HD
ENDBRANCH   8  24
TORSDOF 5
ENDMDL
