MODEL 1
REMARK VINA RESULT:      -0.4      0.000      0.000
REMARK  5 active torsions:
REMARK  status: ('A' for Active; 'I' for Inactive)
REMARK    1  A    between atoms: C4_4  and  C5_5 
REMARK    2  A    between atoms: C8_8  and  O9_9 
REMARK    3  A    between atoms: C10_11  and  O11_12 
REMARK    4  A    between atoms: C16_18  and  O17_19 
REMARK    5  A    between atoms: C19_22  and  O20_23 
ROOT
HETATM    1  O1          0      63.528 102.244 -31.658  1.00  0.00    -0.286 OA
HETATM    2  C2          0      63.881 101.691 -32.736  1.00  0.00     0.201 C 
HETATM    3  C3          0      65.103 101.935 -33.339  1.00  0.00     0.067 C 
HETATM    4  C4          0      65.425 101.392 -34.578  1.00  0.00     0.103 C 
HETATM    5  O13         0      64.545 100.610 -35.177  1.00  0.00    -0.307 OA
HETATM    6  C14         0      63.356 100.377 -34.666  1.00  0.00     0.107 C 
HETATM    7  C15         0      62.305  99.909 -35.442  1.00  0.00     0.049 C 
HETATM    8  C16         0      61.000  99.907 -34.965  1.00  0.00     0.093 C 
HETATM    9  C18         0      60.881  99.875 -33.581  1.00  0.00     0.048 C 
HETATM   10  C19         0      61.931 100.292 -32.773  1.00  0.00     0.096 C 
HETATM   11  C21         0      63.097 100.723 -33.344  1.00  0.00     0.084 C 
ENDROOT
BRANCH  10  12
HETATM   12  O20         0      61.669 100.669 -31.459  1.00  0.00    -0.359 OA
HETATM   13  H20         0      62.075 100.166 -30.763  1.00  0.00     0.218 HD
ENDBRANCH  10  12
BRANCH   4  14
HETATM   14  C5          0      66.391 102.125 -35.400  1.00  0.00     0.025 C 
HETATM   15  C6          0      66.285 102.219 -36.780  1.00  0.00     0.004 C 
HETATM   16  C7          0      66.627 103.431 -37.371  1.00  0.00     0.026 C 
HETATM   17  C8          0      67.183 104.471 -36.634  1.00  0.00     0.112 C 
HETATM   18  C10         0      67.818 104.077 -35.463  1.00  0.00     0.112 C 
HETATM   19  C12         0      67.398 102.905 -34.847  1.00  0.00     0.028 C 
BRANCH  17  20
HETATM   20  O9          0      66.920 105.790 -36.959  1.00  0.00    -0.357 OA
HETATM   21  H9          0      66.051 106.125 -37.145  1.00  0.00     0.218 HD
ENDBRANCH  17  20
BRANCH  18  22
HETATM   22  O11         0      68.550 105.045 -34.789  1.00  0.00    -0.357 OA
HETATM   23  H11         0      68.684 104.911 -33.858  1.00  0.00     0.218 HD
ENDBRANCH  18  22
ENDBRANCH   4  14
BRANCH   8  24
HETATM   24  O17         0      59.922 100.250 -35.788  1.00  0.00    -0.359 OA
HETATM   25  H17         0      59.141 100.664 -35.441  1.00  0.00     0.218 HD
ENDBRANCH   8  24
TORSDOF 5
ENDMDL
MODEL 2
REMARK VINA RESULT:      -0.4      1.621      2.061
REMARK  5 active torsions:
REMARK  status: ('A' for Active; 'I' for Inactive)
REMARK    1  A    between atoms: C4_4  and  C5_5 
REMARK    2  A    between atoms: C8_8  and  O9_9 
REMARK    3  A    between atoms: C10_11  and  O11_12 
REMARK    4  A    between atoms: C16_18  and  O17_19 
REMARK    5  A    between atoms: C19_22  and  O20_23 
ROOT
HETATM    1  O1          0      62.169 103.610 -31.182  1.00  0.00    -0.286 OA
HETATM    2  C2          0      62.740 102.618 -31.713  1.00  0.00     0.201 C 
HETATM    3  C3          0      64.116 102.502 -31.800  1.00  0.00     0.067 C 
HETATM    4  C4          0      64.717 101.449 -32.481  1.00  0.00     0.103 C 
HETATM    5  O13         0      63.947 100.531 -33.037  1.00  0.00    -0.307 OA
HETATM    6  C14         0      62.635 100.613 -33.017  1.00  0.00     0.107 C 
HETATM    7  C15         0      61.844  99.906 -33.910  1.00  0.00     0.049 C 
HETATM    8  C16         0      60.490 100.186 -34.054  1.00  0.00     0.093 C 
HETATM    9  C18         0      59.893 100.779 -32.949  1.00  0.00     0.048 C 
HETATM   10  C19         0      60.660 101.455 -32.010  1.00  0.00     0.096 C 
HETATM   11  C21         0      62.018 101.523 -32.165  1.00  0.00     0.084 C 
ENDROOT
BRANCH  10  12
HETATM   12  O20         0      60.051 102.389 -31.178  1.00  0.00    -0.359 OA
HETATM   13  H20         0      60.371 103.283 -31.202  1.00  0.00     0.218 HD
ENDBRANCH  10  12
BRANCH   4  14
HETATM   14  C5          0      66.048 101.687 -33.043  1.00  0.00     0.025 C 
HETATM   15  C6          0      66.575 100.928 -34.078  1.00  0.00     0.004 C 
HETATM   16  C7          0      67.329 101.589 -35.042  1.00  0.00     0.026 C 
HETATM   17  C8          0      67.664 102.932 -34.913  1.00  0.00     0.112 C 
HETATM   18  C10         0      67.650 103.410 -33.609  1.00  0.00     0.112 C 
HETATM   19  C12         0      66.822 102.784 -32.685  1.00  0.00     0.028 C 
BRANCH  17  20
HETATM   20  O9          0      67.784 103.743 -36.027  1.00  0.00    -0.357 OA
HETATM   21  H9          0      67.682 103.433 -36.919  1.00  0.00     0.218 HD
ENDBRANCH  17  20
BRANCH  18  22
HETATM   22  O11         0      68.156 104.685 -33.402  1.00  0.00    -0.357 OA
HETATM   23  H11         0      69.097 104.762 -33.292  1.00  0.00     0.218 HD
ENDBRANCH  18  22
ENDBRANCH   4  14
BRANCH   8  24
HETATM   24  O17         0      59.875 100.185 -35.311  1.00  0.00    -0.359 OA
HETATM   25  H17         0      59.008 100.550 -35.443  1.00  0.00     0.218 HD
ENDBRANCH   8  24
TORSDOF 5
ENDMDL
MODEL 3
REMARK VINA RESULT:      -0.3      2.294      3.007
REMARK  5 active torsions:
REMARK  status: ('A' for Active; 'I' for Inactive)
REMARK    1  A    between atoms: C4_4  and  C5_5 
REMARK    2  A    between atoms: C8_8  and  O9_9 
REMARK    3  A    between atoms: C10_11  and  O11_12 
REMARK    4  A    between atoms: C16_18  and  O17_19 
REMARK    5  A    between atoms: C19_22  and  O20_23 
ROOT
HETATM    1  O1          0      64.801 102.986 -33.503  1.00  0.00    -0.286 OA
HETATM    2  C2          0      64.490 102.356 -34.551  1.00  0.00     0.201 C 
HETATM    3  C3          0      64.975 102.695 -35.802  1.00  0.00     0.067 C 
HETATM    4  C4          0      64.537 102.050 -36.953  1.00  0.00     0.103 C 
HETATM    5  O13         0      63.651 101.076 -36.836  1.00  0.00    -0.307 OA
HETATM    6  C14         0      63.131 100.739 -35.676  1.00  0.00     0.107 C 
HETATM    7  C15         0      61.945 100.025 -35.587  1.00  0.00     0.049 C 
HETATM    8  C16         0      61.271  99.894 -34.378  1.00  0.00     0.093 C 
HETATM    9  C18         0      62.066 100.025 -33.246  1.00  0.00     0.048 C 
HETATM   10  C19         0      63.281 100.693 -33.311  1.00  0.00     0.096 C 
HETATM   11  C21         0      63.708 101.212 -34.503  1.00  0.00     0.084 C 
ENDROOT
BRANCH  10  12
HETATM   12  O20         0      63.845 101.195 -32.142  1.00  0.00    -0.359 OA
HETATM   13  H20         0      64.792 101.205 -32.073  1.00  0.00     0.218 HD
ENDBRANCH  10  12
BRANCH   4  14
HETATM   14  C5          0      64.595 102.803 -38.207  1.00  0.00     0.025 C 
HETATM   15  C6          0      63.612 102.717 -39.182  1.00  0.00     0.004 C 
HETATM   16  C7          0      63.268 103.885 -39.855  1.00  0.00     0.026 C 
HETATM   17  C8          0      63.968 105.071 -39.663  1.00  0.00     0.112 C 
HETATM   18  C10         0      65.264 104.909 -39.192  1.00  0.00     0.112 C 
HETATM   19  C12         0      65.560 103.772 -38.449  1.00  0.00     0.028 C 
BRANCH  17  20
HETATM   20  O9          0      63.326 106.294 -39.739  1.00  0.00    -0.357 OA
HETATM   21  H9          0      62.467 106.415 -40.128  1.00  0.00     0.218 HD
ENDBRANCH  17  20
BRANCH  18  22
HETATM   22  O11         0      66.068 106.040 -39.162  1.00  0.00    -0.357 OA
HETATM   23  H11         0      66.572 106.230 -39.945  1.00  0.00     0.218 HD
ENDBRANCH  18  22
ENDBRANCH   4  14
BRANCH   8  24
HETATM   24  O17         0      59.875  99.966 -34.310  1.00  0.00    -0.359 OA
HETATM   25  H17         0      59.340  99.187 -34.214  1.00  0.00     0.218 HD
ENDBRANCH   8  24
TORSDOF 5
ENDMDL
MODEL 4
REMARK VINA RESULT:      -0.3      1.564      2.074
REMARK  5 active torsions:
REMARK  status: ('A' for Active; 'I' for Inactive)
REMARK    1  A    between atoms: C4_4  and  C5_5 
REMARK    2  A    between atoms: C8_8  and  O9_9 
REMARK    3  A    between atoms: C10_11  and  O11_12 
REMARK    4  A    between atoms: C16_18  and  O17_19 
REMARK    5  A    between atoms: C19_22  and  O20_23 
ROOT
HETATM    1  O1          0      63.528 102.244 -31.658  1.00  0.00    -0.286 OA
HETATM    2  C2          0      63.881 101.691 -32.736  1.00  0.00     0.201 C 
HETATM    3  C3          0      65.103 101.935 -33.339  1.00  0.00     0.067 C 
HETATM    4  C4          0      65.425 101.392 -34.578  1.00  0.00     0.103 C 
HETATM    5  O13         0      64.545 100.610 -35.177  1.00  0.00    -0.307 OA
HETATM    6  C14         0      63.356 100.377 -34.666  1.00  0.00     0.107 C 
HETATM    7  C15         0      62.305  99.909 -35.442  1.00  0.00     0.049 C 
HETATM    8  C16         0      61.000  99.907 -34.965  1.00  0.00     0.093 C 
HETATM    9  C18         0      60.881  99.875 -33.581  1.00  0.00     0.048 C 
HETATM   10  C19         0      61.931 100.292 -32.773  1.00  0.00     0.096 C 
HETATM   11  C21         0      63.097 100.723 -33.344  1.00  0.00     0.084 C 
ENDROOT
BRANCH  10  12
HETATM   12  O20         0      61.669 100.669 -31.459  1.00  0.00    -0.359 OA
HETATM   13  H20         0      60.792 100.534 -31.123  1.00  0.00     0.218 HD
ENDBRANCH  10  12
BRANCH   4  14
HETATM   14  C5          0      66.391 102.125 -35.400  1.00  0.00     0.025 C 
HETATM   15  C6          0      67.518 102.736 -34.870  1.00  0.00     0.004 C 
HETATM   16  C7          0      68.692 102.679 -35.615  1.00  0.00     0.026 C 
HETATM   17  C8          0      68.714 102.152 -36.902  1.00  0.00     0.112 C 
HETATM   18  C10         0      67.489 102.165 -37.555  1.00  0.00     0.112 C 
HETATM   19  C12         0      66.331 102.135 -36.787  1.00  0.00     0.028 C 
BRANCH  17  20
HETATM   20  O9          0      69.831 101.486 -37.376  1.00  0.00    -0.357 OA
HETATM   21  H9          0      69.794 100.781 -38.012  1.00  0.00     0.218 HD
ENDBRANCH  17  20
BRANCH  18  22
HETATM   22  O11         0      67.491 101.828 -38.901  1.00  0.00    -0.357 OA
HETATM   23  H11         0      67.042 101.027 -39.145  1.00  0.00     0.218 HD
ENDBRANCH  18  22
ENDBRANCH   4  14
BRANCH   8  24
HETATM   24  O17         0      59.922 100.250 -35.788  1.00  0.00    -0.359 OA
HETATM   25  H17         0      59.291 100.913 -35.533  1.00  0.00     0.218 HD
ENDBRANCH   8  24
TORSDOF 5
ENDMDL
MODEL 5
REMARK VINA RESULT:      -0.3      3.403      6.540
REMARK  5 active torsions:
REMARK  status: ('A' for Active; 'I' for Inactive)
REMARK    1  A    between atoms: C4_4  and  C5_5 
REMARK    2  A    between atoms: C8_8  and  O9_9 
REMARK    3  A    between atoms: C10_11  and  O11_12 
REMARK    4  A    between atoms: C16_18  and  O17_19 
REMARK    5  A    between atoms: C19_22  and  O20_23 
ROOT
HETATM    1  O1          0      62.597 106.656 -33.990  1.00  0.00    -0.286 OA
HETATM    2  C2          0      63.216 105.620 -33.622  1.00  0.00     0.201 C 
HETATM    3  C3          0      63.208 104.443 -34.351  1.00  0.00     0.067 C 
HETATM    4  C4          0      63.812 103.286 -33.872  1.00  0.00     0.103 C 
HETATM    5  O13         0      64.424 103.327 -32.702  1.00  0.00    -0.307 OA
HETATM    6  C14         0      64.429 104.408 -31.953  1.00  0.00     0.107 C 
HETATM    7  C15         0      64.703 104.355 -30.594  1.00  0.00     0.049 C 
HETATM    8  C16         0      64.460 105.444 -29.766  1.00  0.00     0.093 C 
HETATM    9  C18         0      64.456 106.678 -30.405  1.00  0.00     0.048 C 
HETATM   10  C19         0      64.231 106.764 -31.772  1.00  0.00     0.096 C 
HETATM   11  C21         0      64.029 105.623 -32.500  1.00  0.00     0.084 C 
ENDROOT
BRANCH  10  12
HETATM   12  O20         0      63.800 107.970 -32.316  1.00  0.00    -0.359 OA
HETATM   13  H20         0      62.888 108.209 -32.203  1.00  0.00     0.218 HD
ENDBRANCH  10  12
BRANCH   4  14
HETATM   14  C5          0      63.278 102.007 -34.344  1.00  0.00     0.025 C 
HETATM   15  C6          0      63.318 100.848 -33.582  1.00  0.00     0.004 C 
HETATM   16  C7          0      62.219  99.998 -33.643  1.00  0.00     0.026 C 
HETATM   17  C8          0      61.173 100.221 -34.533  1.00  0.00     0.112 C 
HETATM   18  C10         0      61.509 100.987 -35.641  1.00  0.00     0.112 C 
HETATM   19  C12         0      62.558 101.891 -35.526  1.00  0.00     0.028 C 
BRANCH  17  20
HETATM   20  O9          0      59.875  99.875 -34.202  1.00  0.00    -0.357 OA
HETATM   21  H9          0      59.242  99.543 -34.828  1.00  0.00     0.218 HD
ENDBRANCH  17  20
BRANCH  18  22
HETATM   22  O11         0      60.561 101.082 -36.650  1.00  0.00    -0.357 OA
HETATM   23  H11         0      60.715 100.569 -37.435  1.00  0.00     0.218 HD
ENDBRANCH  18  22
ENDBRANCH   4  14
BRANCH   8  24
HETATM   24  O17         0      63.931 105.279 -28.481  1.00  0.00    -0.359 OA
HETATM   25  H17         0      64.348 105.659 -27.717  1.00  0.00     0.218 HD
ENDBRANCH   8  24
TORSDOF 5
ENDMDL
MODEL 6
REMARK VINA RESULT:      -0.3      2.266      3.541
REMARK  5 active torsions:
REMARK  status: ('A' for Active; 'I' for Inactive)
REMARK    1  A    between atoms: C4_4  and  C5_5 
REMARK    2  A    between atoms: C8_8  and  O9_9 
REMARK    3  A    between atoms: C10_11  and  O11_12 
REMARK    4  A    between atoms: C16_18  and  O17_19 
REMARK    5  A    between atoms: C19_22  and  O20_23 
ROOT
HETATM    1  O1          0      60.877 100.830 -34.035  1.00  0.00    -0.286 OA
HETATM    2  C2          0      62.045 100.937 -34.502  1.00  0.00     0.201 C 
HETATM    3  C3          0      63.147 101.210 -33.710  1.00  0.00     0.067 C 
HETATM    4  C4          0      64.405 101.426 -34.262  1.00  0.00     0.103 C 
HETATM    5  O13         0      64.545 101.346 -35.574  1.00  0.00    -0.307 OA
HETATM    6  C14         0      63.524 101.127 -36.374  1.00  0.00     0.107 C 
HETATM    7  C15         0      63.576 101.433 -37.726  1.00  0.00     0.049 C 
HETATM    8  C16         0      62.428 101.441 -38.509  1.00  0.00     0.093 C 
HETATM    9  C18         0      61.391 100.645 -38.037  1.00  0.00     0.048 C 
HETATM   10  C19         0      61.334 100.281 -36.699  1.00  0.00     0.096 C 
HETATM   11  C21         0      62.315 100.694 -35.840  1.00  0.00     0.084 C 
ENDROOT
BRANCH  10  12
HETATM   12  O20         0      60.118  99.878 -36.155  1.00  0.00    -0.359 OA
HETATM   13  H20         0      59.345 100.388 -36.367  1.00  0.00     0.218 HD
ENDBRANCH  10  12
BRANCH   4  14
HETATM   14  C5          0      65.334 102.266 -33.504  1.00  0.00     0.025 C 
HETATM   15  C6          0      66.594 102.607 -33.974  1.00  0.00     0.004 C 
HETATM   16  C7          0      67.051 103.895 -33.715  1.00  0.00     0.026 C 
HETATM   17  C8          0      66.341 104.772 -32.902  1.00  0.00     0.112 C 
HETATM   18  C10         0      65.477 104.159 -32.004  1.00  0.00     0.112 C 
HETATM   19  C12         0      64.967 102.907 -32.328  1.00  0.00     0.028 C 
BRANCH  17  20
HETATM   20  O9          0      66.359 106.134 -33.142  1.00  0.00    -0.357 OA
HETATM   21  H9          0      65.577 106.658 -33.270  1.00  0.00     0.218 HD
ENDBRANCH  17  20
BRANCH  18  22
HETATM   22  O11         0      64.888 104.970 -31.045  1.00  0.00    -0.357 OA
HETATM   23  H11         0      64.482 105.773 -31.352  1.00  0.00     0.218 HD
ENDBRANCH  18  22
ENDBRANCH   4  14
BRANCH   8  24
HETATM   24  O17         0      62.218 102.420 -39.486  1.00  0.00    -0.359 OA
HETATM   25  H17         0      62.845 102.572 -40.183  1.00  0.00     0.218 HD
ENDBRANCH   8  24
TORSDOF 5
ENDMDL
MODEL 7
REMARK VINA RESULT:      -0.3      3.392      6.656
REMARK  5 active torsions:
REMARK  status: ('A' for Active; 'I' for Inactive)
REMARK    1  A    between atoms: C4_4  and  C5_5 
REMARK    2  A    between atoms: C8_8  and  O9_9 
REMARK    3  A    between atoms: C10_11  and  O11_12 
REMARK    4  A    between atoms: C16_18  and  O17_19 
REMARK    5  A    between atoms: C19_22  and  O20_23 
ROOT
HETATM    1  O1          0      64.610 102.954 -32.384  1.00  0.00    -0.286 OA
HETATM    2  C2          0      63.743 103.696 -32.921  1.00  0.00     0.201 C 
HETATM    3  C3          0      62.505 103.229 -33.330  1.00  0.00     0.067 C 
HETATM    4  C4          0      61.608 104.043 -34.012  1.00  0.00     0.103 C 
HETATM    5  O13         0      61.946 105.297 -34.253  1.00  0.00    -0.307 OA
HETATM    6  C14         0      63.123 105.781 -33.920  1.00  0.00     0.107 C 
HETATM    7  C15         0      63.633 106.931 -34.505  1.00  0.00     0.049 C 
HETATM    8  C16         0      64.965 107.293 -34.343  1.00  0.00     0.093 C 
HETATM    9  C18         0      65.575 106.790 -33.200  1.00  0.00     0.048 C 
HETATM   10  C19         0      65.063 105.668 -32.562  1.00  0.00     0.096 C 
HETATM   11  C21         0      63.939 105.062 -33.053  1.00  0.00     0.084 C 
ENDROOT
BRANCH  10  12
HETATM   12  O20         0      65.888 104.929 -31.719  1.00  0.00    -0.359 OA
HETATM   13  H20         0      65.697 104.006 -31.608  1.00  0.00     0.218 HD
ENDBRANCH  10  12
BRANCH   4  14
HETATM   14  C5          0      60.654 103.386 -34.907  1.00  0.00     0.025 C 
HETATM   15  C6          0      60.066 104.032 -35.985  1.00  0.00     0.004 C 
HETATM   16  C7          0      59.881 103.299 -37.153  1.00  0.00     0.026 C 
HETATM   17  C8          0      60.146 101.934 -37.208  1.00  0.00     0.112 C 
HETATM   18  C10         0      60.108 101.287 -35.980  1.00  0.00     0.112 C 
HETATM   19  C12         0      60.380 102.026 -34.835  1.00  0.00     0.028 C 
BRANCH  17  20
HETATM   20  O9          0      60.614 101.349 -38.371  1.00  0.00    -0.357 OA
HETATM   21  H9          0      60.445 101.693 -39.240  1.00  0.00     0.218 HD
ENDBRANCH  17  20
BRANCH  18  22
HETATM   22  O11         0      60.177  99.901 -35.998  1.00  0.00    -0.357 OA
HETATM   23  H11         0      61.038  99.515 -36.107  1.00  0.00     0.218 HD
ENDBRANCH  18  22
ENDBRANCH   4  14
BRANCH   8  24
HETATM   24  O17         0      65.710 107.824 -35.401  1.00  0.00    -0.359 OA
HETATM   25  H17         0      66.572 107.492 -35.621  1.00  0.00     0.218 HD
ENDBRANCH   8  24
TORSDOF 5
ENDMDL
MODEL 8
REMARK VINA RESULT:      -0.3      2.288      2.607
REMARK  5 active torsions:
REMARK  status: ('A' for Active; 'I' for Inactive)
REMARK    1  A    between atoms: C4_4  and  C5_5 
REMARK    2  A    between atoms: C8_8  and  O9_9 
REMARK    3  A    between atoms: C10_11  and  O11_12 
REMARK    4  A    between atoms: C16_18  and  O17_19 
REMARK    5  A    between atoms: C19_22  and  O20_23 
ROOT
HETATM    1  O1          0      62.876 104.874 -34.584  1.00  0.00    -0.286 OA
HETATM    2  C2          0      63.359 103.742 -34.306  1.00  0.00     0.201 C 
HETATM    3  C3          0      64.684 103.415 -34.535  1.00  0.00     0.067 C 
HETATM    4  C4          0      65.166 102.130 -34.315  1.00  0.00     0.103 C 
HETATM    5  O13         0      64.335 101.210 -33.857  1.00  0.00    -0.307 OA
HETATM    6  C14         0      63.059 101.458 -33.658  1.00  0.00     0.107 C 
HETATM    7  C15         0      62.122 100.439 -33.570  1.00  0.00     0.049 C 
HETATM    8  C16         0      60.759 100.706 -33.616  1.00  0.00     0.093 C 
HETATM    9  C18         0      60.399 101.989 -33.221  1.00  0.00     0.048 C 
HETATM   10  C19         0      61.325 103.023 -33.252  1.00  0.00     0.096 C 
HETATM   11  C21         0      62.608 102.773 -33.658  1.00  0.00     0.084 C 
ENDROOT
BRANCH  10  12
HETATM   12  O20         0      60.875 104.339 -33.285  1.00  0.00    -0.359 OA
HETATM   13  H20         0      60.660 104.757 -32.460  1.00  0.00     0.218 HD
ENDBRANCH  10  12
BRANCH   4  14
HETATM   14  C5          0      66.323 101.704 -35.106  1.00  0.00     0.025 C 
HETATM   15  C6          0      66.495 100.398 -35.542  1.00  0.00     0.004 C 
HETATM   16  C7          0      67.031 100.208 -36.812  1.00  0.00     0.026 C 
HETATM   17  C8          0      67.504 101.274 -37.571  1.00  0.00     0.112 C 
HETATM   18  C10         0      67.869 102.393 -36.835  1.00  0.00     0.112 C 
HETATM   19  C12         0      67.255 102.603 -35.605  1.00  0.00     0.028 C 
BRANCH  17  20
HETATM   20  O9          0      67.403 101.261 -38.951  1.00  0.00    -0.357 OA
HETATM   21  H9          0      67.258 100.474 -39.462  1.00  0.00     0.218 HD
ENDBRANCH  17  20
BRANCH  18  22
HETATM   22  O11         0      68.521 103.409 -37.518  1.00  0.00    -0.357 OA
HETATM   23  H11         0      68.153 103.670 -38.354  1.00  0.00     0.218 HD
ENDBRANCH  18  22
ENDBRANCH   4  14
BRANCH   8  24
HETATM   24  O17         0      59.877  99.877 -34.317  1.00  0.00    -0.359 OA
HETATM   25  H17         0      58.940 100.034 -34.320  1.00  0.00     0.218 HD
ENDBRANCH   8  24
TORSDOF 5
ENDMDL
MODEL 9
REMARK VINA RESULT:      -0.3      2.027      6.921
REMARK  5 active torsions:
REMARK  status: ('A' for Active; 'I' for Inactive)
REMARK    1  A    between atoms: C4_4  and  C5_5 
REMARK    2  A    between atoms: C8_8  and  O9_9 
REMARK    3  A    between atoms: C10_11  and  O11_12 
REMARK    4  A    between atoms: C16_18  and  O17_19 
REMARK    5  A    between atoms: C19_22  and  O20_23 
ROOT
HETATM    1  O1          0      63.412 105.758 -36.615  1.00  0.00    -0.286 OA
HETATM    2  C2          0      63.866 104.628 -36.948  1.00  0.00     0.201 C 
HETATM    3  C3          0      63.209 103.443 -36.664  1.00  0.00     0.067 C 
HETATM    4  C4          0      63.780 102.208 -36.950  1.00  0.00     0.103 C 
HETATM    5  O13         0      64.968 102.176 -37.526  1.00  0.00    -0.307 OA
HETATM    6  C14         0      65.650 103.270 -37.783  1.00  0.00     0.107 C 
HETATM    7  C15         0      67.020 103.243 -38.004  1.00  0.00     0.049 C 
HETATM    8  C16         0      67.771 104.412 -38.021  1.00  0.00     0.093 C 
HETATM    9  C18         0      67.060 105.563 -38.338  1.00  0.00     0.048 C 
HETATM   10  C19         0      65.682 105.609 -38.174  1.00  0.00     0.096 C 
HETATM   11  C21         0      65.017 104.506 -37.711  1.00  0.00     0.084 C 
ENDROOT
BRANCH  10  12
HETATM   12  O20         0      65.050 106.844 -38.069  1.00  0.00    -0.359 OA
HETATM   13  H20         0      64.203 106.876 -37.641  1.00  0.00     0.218 HD
ENDBRANCH  10  12
BRANCH   4  14
HETATM   14  C5          0      63.365 101.071 -36.126  1.00  0.00     0.025 C 
HETATM   15  C6          0      64.186 100.501 -35.163  1.00  0.00     0.004 C 
HETATM   16  C7          0      63.593 100.079 -33.978  1.00  0.00     0.026 C 
HETATM   17  C8          0      62.213 100.097 -33.807  1.00  0.00     0.112 C 
HETATM   18  C10         0      61.481 100.068 -34.987  1.00  0.00     0.112 C 
HETATM   19  C12         0      62.068 100.575 -36.140  1.00  0.00     0.028 C 
BRANCH  17  20
HETATM   20  O9          0      61.656 100.340 -32.564  1.00  0.00    -0.357 OA
HETATM   21  H9          0      62.012 100.959 -31.938  1.00  0.00     0.218 HD
ENDBRANCH  17  20
BRANCH  18  22
HETATM   22  O11         0      60.109  99.894 -34.872  1.00  0.00    -0.357 OA
HETATM   23  H11         0      59.792  98.999 -34.818  1.00  0.00     0.218 HD
ENDBRANCH  18  22
ENDBRANCH   4  14
BRANCH   8  24
HETATM   24  O17         0      69.043 104.470 -37.439  1.00  0.00    -0.359 OA
HETATM   25  H17         0      69.497 103.686 -37.153  1.00  0.00     0.218 HD
ENDBRANCH   8  24
TORSDOF 5
ENDMDL
