MODEL 1
REMARK VINA RESULT:      -7.8      0.000      0.000
REMARK  5 active torsions:
REMARK  status: ('A' for Active; 'I' for Inactive)
REMARK    1  A    between atoms: C4_4  and  C5_5 
REMARK    2  A    between atoms: C8_8  and  O9_9 
REMARK    3  A    between atoms: C10_11  and  O11_12 
REMARK    4  A    between atoms: C16_18  and  O17_19 
REMARK    5  A    between atoms: C19_22  and  O20_23 
ROOT
HETATM    1  O1          0      36.190  86.623  -9.153  1.00  0.00    -0.286 OA
HETATM    2  C2          0      35.312  85.754  -9.408  1.00  0.00     0.201 C 
HETATM    3  C3          0      33.954  86.020  -9.351  1.00  0.00     0.067 C 
HETATM    4  C4          0      33.008  85.018  -9.536  1.00  0.00     0.103 C 
HETATM    5  O13         0      33.424  83.791  -9.793  1.00  0.00    -0.307 OA
HETATM    6  C14         0      34.701  83.477  -9.821  1.00  0.00     0.107 C 
HETATM    7  C15         0      35.135  82.166  -9.689  1.00  0.00     0.049 C 
HETATM    8  C16         0      36.473  81.868  -9.464  1.00  0.00     0.093 C 
HETATM    9  C18         0      37.371  82.834  -9.902  1.00  0.00     0.048 C 
HETATM   10  C19         0      36.959  84.146 -10.090  1.00  0.00     0.096 C 
HETATM   11  C21         0      35.655  84.488  -9.859  1.00  0.00     0.084 C 
ENDROOT
BRANCH  10  12
HETATM   12  O20         0      37.909  85.163 -10.096  1.00  0.00    -0.359 OA
HETATM   13  H20         0      38.274  85.437  -9.263  1.00  0.00     0.218 HD
ENDBRANCH  10  12
BRANCH   4  14
HETATM   14  C5          0      31.705  85.201  -8.893  1.00  0.00     0.025 C 
HETATM   15  C6          0      30.930  84.139  -8.450  1.00  0.00     0.004 C 
HETATM   16  C7          0      30.235  84.303  -7.256  1.00  0.00     0.026 C 
HETATM   17  C8          0      30.201  85.526  -6.594  1.00  0.00     0.112 C 
HETATM   18  C10         0      30.446  86.629  -7.401  1.00  0.00     0.112 C 
HETATM   19  C12         0      31.216  86.453  -8.544  1.00  0.00     0.028 C 
BRANCH  17  20
HETATM   20  O9          0      30.138  85.583  -5.213  1.00  0.00    -0.357 OA
HETATM   21  H9          0      30.580  84.968  -4.639  1.00  0.00     0.218 HD
ENDBRANCH  17  20
BRANCH  18  22
HETATM   22  O11         0      30.239  87.879  -6.835  1.00  0.00    -0.357 OA
HETATM   23  H11         0      29.763  88.514  -7.358  1.00  0.00     0.218 HD
ENDBRANCH  18  22
ENDBRANCH   4  14
BRANCH   8  24
HETATM   24  O17         0      36.856  80.856  -8.577  1.00  0.00    -0.359 OA
HETATM   25  H17         0      36.367  80.045  -8.503  1.00  0.00     0.218 HD
ENDBRANCH   8  24
TORSDOF 5
ENDMDL
MODEL 2
REMARK VINA RESULT:      -7.2      1.668      6.756
REMARK  5 active torsions:
REMARK  status: ('A' for Active; 'I' for Inactive)
REMARK    1  A    between atoms: C4_4  and  C5_5 
REMARK    2  A    between atoms: C8_8  and  O9_9 
REMARK    3  A    between atoms: C10_11  and  O11_12 
REMARK    4  A    between atoms: C16_18  and  O17_19 
REMARK    5  A    between atoms: C19_22  and  O20_23 
ROOT
HETATM    1  O1          0      33.585  86.041  -5.650  1.00  0.00    -0.286 OA
HETATM    2  C2          0      33.414  85.528  -6.789  1.00  0.00     0.201 C 
HETATM    3  C3          0      34.395  84.799  -7.439  1.00  0.00     0.067 C 
HETATM    4  C4          0      34.216  84.331  -8.736  1.00  0.00     0.103 C 
HETATM    5  O13         0      33.071  84.576  -9.347  1.00  0.00    -0.307 OA
HETATM    6  C14         0      32.121  85.294  -8.790  1.00  0.00     0.107 C 
HETATM    7  C15         0      31.115  85.885  -9.541  1.00  0.00     0.049 C 
HETATM    8  C16         0      30.271  86.842  -8.991  1.00  0.00     0.093 C 
HETATM    9  C18         0      30.131  86.777  -7.610  1.00  0.00     0.048 C 
HETATM   10  C19         0      31.096  86.152  -6.832  1.00  0.00     0.096 C 
HETATM   11  C21         0      32.185  85.581  -7.430  1.00  0.00     0.084 C 
ENDROOT
BRANCH  10  12
HETATM   12  O20         0      31.183  86.461  -5.478  1.00  0.00    -0.359 OA
HETATM   13  H20         0      30.988  85.775  -4.851  1.00  0.00     0.218 HD
ENDBRANCH  10  12
BRANCH   4  14
HETATM   14  C5          0      35.418  84.130  -9.547  1.00  0.00     0.025 C 
HETATM   15  C6          0      36.284  85.162  -9.878  1.00  0.00     0.004 C 
HETATM   16  C7          0      37.647  84.882  -9.889  1.00  0.00     0.026 C 
HETATM   17  C8          0      38.127  83.590  -9.710  1.00  0.00     0.112 C 
HETATM   18  C10         0      37.220  82.585 -10.021  1.00  0.00     0.112 C 
HETATM   19  C12         0      35.863  82.867  -9.919  1.00  0.00     0.028 C 
BRANCH  17  20
HETATM   20  O9          0      39.334  83.364  -9.073  1.00  0.00    -0.357 OA
HETATM   21  H9          0      40.057  83.982  -9.076  1.00  0.00     0.218 HD
ENDBRANCH  17  20
BRANCH  18  22
HETATM   22  O11         0      37.704  81.285 -10.042  1.00  0.00    -0.357 OA
HETATM   23  H11         0      37.755  80.859 -10.890  1.00  0.00     0.218 HD
ENDBRANCH  18  22
ENDBRANCH   4  14
BRANCH   8  24
HETATM   24  O17         0      29.875  87.970  -9.718  1.00  0.00    -0.359 OA
HETATM   25  H17         0      30.280  88.197 -10.547  1.00  0.00     0.218 HD
ENDBRANCH   8  24
TORSDOF 5
ENDMDL
MODEL 3
REMARK VINA RESULT:      -7.0      1.440      2.018
REMARK  5 active torsions:
REMARK  status: ('A' for Active; 'I' for Inactive)
REMARK    1  A    between atoms: C4_4  and  C5_5 
REMARK    2  A    between atoms: C8_8  and  O9_9 
REMARK    3  A    between atoms: C10_11  and  O11_12 
REMARK    4  A    between atoms: C16_18  and  O17_19 
REMARK    5  A    between atoms: C19_22  and  O20_23 
ROOT
HETATM    1  O1          0      38.321  85.592  -9.676  1.00  0.00    -0.286 OA
HETATM    2  C2          0      37.157  85.134  -9.840  1.00  0.00     0.201 C 
HETATM    3  C3          0      36.043  85.945  -9.976  1.00  0.00     0.067 C 
HETATM    4  C4          0      34.760  85.415 -10.053  1.00  0.00     0.103 C 
HETATM    5  O13         0      34.612  84.102 -10.013  1.00  0.00    -0.307 OA
HETATM    6  C14         0      35.632  83.289  -9.847  1.00  0.00     0.107 C 
HETATM    7  C15         0      35.462  81.983  -9.410  1.00  0.00     0.049 C 
HETATM    8  C16         0      36.542  81.214  -8.994  1.00  0.00     0.093 C 
HETATM    9  C18         0      37.770  81.593  -9.523  1.00  0.00     0.048 C 
HETATM   10  C19         0      37.961  82.878 -10.012  1.00  0.00     0.096 C 
HETATM   11  C21         0      36.927  83.774  -9.989  1.00  0.00     0.084 C 
ENDROOT
BRANCH  10  12
HETATM   12  O20         0      39.255  83.378 -10.125  1.00  0.00    -0.359 OA
HETATM   13  H20         0      39.441  83.974 -10.841  1.00  0.00     0.218 HD
ENDBRANCH  10  12
BRANCH   4  14
HETATM   14  C5          0      33.657  86.262  -9.597  1.00  0.00     0.025 C 
HETATM   15  C6          0      32.376  86.177 -10.123  1.00  0.00     0.004 C 
HETATM   16  C7          0      31.307  86.323  -9.244  1.00  0.00     0.026 C 
HETATM   17  C8          0      31.501  86.676  -7.913  1.00  0.00     0.112 C 
HETATM   18  C10         0      32.693  87.339  -7.656  1.00  0.00     0.112 C 
HETATM   19  C12         0      33.772  87.109  -8.501  1.00  0.00     0.028 C 
BRANCH  17  20
HETATM   20  O9          0      30.657  86.201  -6.924  1.00  0.00    -0.357 OA
HETATM   21  H9          0      30.719  86.454  -6.010  1.00  0.00     0.218 HD
ENDBRANCH  17  20
BRANCH  18  22
HETATM   22  O11         0      32.852  87.878  -6.387  1.00  0.00    -0.357 OA
HETATM   23  H11         0      33.269  88.730  -6.331  1.00  0.00     0.218 HD
ENDBRANCH  18  22
ENDBRANCH   4  14
BRANCH   8  24
HETATM   24  O17         0      36.448  80.364  -7.887  1.00  0.00    -0.359 OA
HETATM   25  H17         0      36.969  80.503  -7.105  1.00  0.00     0.218 HD
ENDBRANCH   8  24
TORSDOF 5
ENDMDL
MODEL 4
REMARK VINA RESULT:      -6.1      1.406      1.807
REMARK  5 active torsions:
REMARK  status: ('A' for Active; 'I' for Inactive)
REMARK    1  A    between atoms: C4_4  and  C5_5 
REMARK    2  A    between atoms: C8_8  and  O9_9 
REMARK    3  A    between atoms: C10_11  and  O11_12 
REMARK    4  A    between atoms: C16_18  and  O17_19 
REMARK    5  A    between atoms: C19_22  and  O20_23 
ROOT
HETATM    1  O1          0      36.785  85.006  -9.967  1.00  0.00    -0.286 OA
HETATM    2  C2          0      35.589  84.608  -9.916  1.00  0.00     0.201 C 
HETATM    3  C3          0      34.509  85.451 -10.111  1.00  0.00     0.067 C 
HETATM    4  C4          0      33.201  85.008  -9.948  1.00  0.00     0.103 C 
HETATM    5  O13         0      32.994  83.746  -9.618  1.00  0.00    -0.307 OA
HETATM    6  C14         0      33.985  82.913  -9.385  1.00  0.00     0.107 C 
HETATM    7  C15         0      33.800  81.740  -8.668  1.00  0.00     0.049 C 
HETATM    8  C16         0      34.881  80.998  -8.207  1.00  0.00     0.093 C 
HETATM    9  C18         0      36.060  81.173  -8.921  1.00  0.00     0.048 C 
HETATM   10  C19         0      36.259  82.314  -9.687  1.00  0.00     0.096 C 
HETATM   11  C21         0      35.279  83.266  -9.752  1.00  0.00     0.084 C 
ENDROOT
BRANCH  10  12
HETATM   12  O20         0      37.555  82.687 -10.029  1.00  0.00    -0.359 OA
HETATM   13  H20         0      38.090  82.057 -10.497  1.00  0.00     0.218 HD
ENDBRANCH  10  12
BRANCH   4  14
HETATM   14  C5          0      32.197  86.007  -9.575  1.00  0.00     0.025 C 
HETATM   15  C6          0      30.835  85.803  -9.741  1.00  0.00     0.004 C 
HETATM   16  C7          0      29.986  86.286  -8.751  1.00  0.00     0.026 C 
HETATM   17  C8          0      30.459  87.062  -7.698  1.00  0.00     0.112 C 
HETATM   18  C10         0      31.654  87.721  -7.956  1.00  0.00     0.112 C 
HETATM   19  C12         0      32.524  87.170  -8.890  1.00  0.00     0.028 C 
BRANCH  17  20
HETATM   20  O9          0      29.876  86.990  -6.446  1.00  0.00    -0.357 OA
HETATM   21  H9          0      30.275  86.552  -5.702  1.00  0.00     0.218 HD
ENDBRANCH  17  20
BRANCH  18  22
HETATM   22  O11         0      32.073  88.653  -7.017  1.00  0.00    -0.357 OA
HETATM   23  H11         0      31.636  88.640  -6.173  1.00  0.00     0.218 HD
ENDBRANCH  18  22
ENDBRANCH   4  14
BRANCH   8  24
HETATM   24  O17         0      34.869  80.401  -6.941  1.00  0.00    -0.359 OA
HETATM   25  H17         0      35.583  79.850  -6.643  1.00  0.00     0.218 HD
ENDBRANCH   8  24
TORSDOF 5
ENDMDL
MODEL 5
REMARK VINA RESULT:      -5.3      1.387      2.795
REMARK  5 active torsions:
REMARK  status: ('A' for Active; 'I' for Inactive)
REMARK    1  A    between atoms: C4_4  and  C5_5 
REMARK    2  A    between atoms: C8_8  and  O9_9 
REMARK    3  A    between atoms: C10_11  and  O11_12 
REMARK    4  A    between atoms: C16_18  and  O17_19 
REMARK    5  A    between atoms: C19_22  and  O20_23 
ROOT
HETATM    1  O1          0      34.634  81.436 -10.125  1.00  0.00    -0.286 OA
HETATM    2  C2          0      34.485  82.461  -9.405  1.00  0.00     0.201 C 
HETATM    3  C3          0      33.253  82.864  -8.919  1.00  0.00     0.067 C 
HETATM    4  C4          0      33.102  84.053  -8.214  1.00  0.00     0.103 C 
HETATM    5  O13         0      34.170  84.798  -7.990  1.00  0.00    -0.307 OA
HETATM    6  C14         0      35.355  84.480  -8.461  1.00  0.00     0.107 C 
HETATM    7  C15         0      36.370  85.419  -8.581  1.00  0.00     0.049 C 
HETATM    8  C16         0      37.523  85.146  -9.306  1.00  0.00     0.093 C 
HETATM    9  C18         0      37.835  83.797  -9.428  1.00  0.00     0.048 C 
HETATM   10  C19         0      36.853  82.829  -9.267  1.00  0.00     0.096 C 
HETATM   11  C21         0      35.572  83.204  -8.971  1.00  0.00     0.084 C 
ENDROOT
BRANCH  10  12
HETATM   12  O20         0      37.054  81.561  -9.804  1.00  0.00    -0.359 OA
HETATM   13  H20         0      37.554  81.492 -10.608  1.00  0.00     0.218 HD
ENDBRANCH  10  12
BRANCH   4  14
HETATM   14  C5          0      31.789  84.699  -8.264  1.00  0.00     0.025 C 
HETATM   15  C6          0      30.787  84.439  -7.341  1.00  0.00     0.004 C 
HETATM   16  C7          0      29.999  85.508  -6.926  1.00  0.00     0.026 C 
HETATM   17  C8          0      30.114  86.767  -7.507  1.00  0.00     0.112 C 
HETATM   18  C10         0      30.649  86.768  -8.788  1.00  0.00     0.112 C 
HETATM   19  C12         0      31.501  85.731  -9.149  1.00  0.00     0.028 C 
BRANCH  17  20
HETATM   20  O9          0      29.903  87.913  -6.761  1.00  0.00    -0.357 OA
HETATM   21  H9          0      29.718  88.764  -7.142  1.00  0.00     0.218 HD
ENDBRANCH  17  20
BRANCH  18  22
HETATM   22  O11         0      30.610  87.968  -9.484  1.00  0.00    -0.357 OA
HETATM   23  H11         0      30.786  88.759  -8.988  1.00  0.00     0.218 HD
ENDBRANCH  18  22
ENDBRANCH   4  14
BRANCH   8  24
HETATM   24  O17         0      38.118  86.115 -10.122  1.00  0.00    -0.359 OA
HETATM   25  H17         0      38.379  86.962  -9.782  1.00  0.00     0.218 HD
ENDBRANCH   8  24
TORSDOF 5
ENDMDL
MODEL 6
REMARK VINA RESULT:      -5.3     14.502     16.140
REMARK  5 active torsions:
REMARK  status: ('A' for Active; 'I' for Inactive)
REMARK    1  A    between atoms: C4_4  and  C5_5 
REMARK    2  A    between atoms: C8_8  and  O9_9 
REMARK    3  A    between atoms: C10_11  and  O11_12 
REMARK    4  A    between atoms: C16_18  and  O17_19 
REMARK    5  A    between atoms: C19_22  and  O20_23 
ROOT
HETATM    1  O1          0      47.820  85.551  -1.818  1.00  0.00    -0.286 OA
HETATM    2  C2          0      48.563  85.488  -2.836  1.00  0.00     0.201 C 
HETATM    3  C3          0      48.798  86.575  -3.662  1.00  0.00     0.067 C 
HETATM    4  C4          0      49.537  86.453  -4.833  1.00  0.00     0.103 C 
HETATM    5  O13         0      50.039  85.272  -5.147  1.00  0.00    -0.307 OA
HETATM    6  C14         0      49.815  84.201  -4.417  1.00  0.00     0.107 C 
HETATM    7  C15         0      49.985  82.921  -4.926  1.00  0.00     0.049 C 
HETATM    8  C16         0      49.509  81.806  -4.248  1.00  0.00     0.093 C 
HETATM    9  C18         0      49.362  81.971  -2.876  1.00  0.00     0.048 C 
HETATM   10  C19         0      49.236  83.241  -2.328  1.00  0.00     0.096 C 
HETATM   11  C21         0      49.274  84.339  -3.144  1.00  0.00     0.084 C 
ENDROOT
BRANCH  10  12
HETATM   12  O20         0      48.665  83.384  -1.067  1.00  0.00    -0.359 OA
HETATM   13  H20         0      47.861  82.912  -0.886  1.00  0.00     0.218 HD
ENDBRANCH  10  12
BRANCH   4  14
HETATM   14  C5          0      49.249  87.404  -5.908  1.00  0.00     0.025 C 
HETATM   15  C6          0      49.707  87.232  -7.207  1.00  0.00     0.004 C 
HETATM   16  C7          0      48.853  87.593  -8.244  1.00  0.00     0.026 C 
HETATM   17  C8          0      47.640  88.227  -8.003  1.00  0.00     0.112 C 
HETATM   18  C10         0      47.570  88.905  -6.793  1.00  0.00     0.112 C 
HETATM   19  C12         0      48.373  88.469  -5.745  1.00  0.00     0.028 C 
BRANCH  17  20
HETATM   20  O9          0      46.547  88.002  -8.822  1.00  0.00    -0.357 OA
HETATM   21  H9          0      46.044  87.196  -8.821  1.00  0.00     0.218 HD
ENDBRANCH  17  20
BRANCH  18  22
HETATM   22  O11         0      46.458  89.708  -6.586  1.00  0.00    -0.357 OA
HETATM   23  H11         0      46.522  90.613  -6.870  1.00  0.00     0.218 HD
ENDBRANCH  18  22
ENDBRANCH   4  14
BRANCH   8  24
HETATM   24  O17         0      48.913  80.738  -4.928  1.00  0.00    -0.359 OA
HETATM   25  H17         0      48.027  80.795  -5.268  1.00  0.00     0.218 HD
ENDBRANCH   8  24
TORSDOF 5
ENDMDL
MODEL 7
REMARK VINA RESULT:      -5.2      2.358      5.300
REMARK  5 active torsions:
REMARK  status: ('A' for Active; 'I' for Inactive)
REMARK    1  A    between atoms: C4_4  and  C5_5 
REMARK    2  A    between atoms: C8_8  and  O9_9 
REMARK    3  A    between atoms: C10_11  and  O11_12 
REMARK    4  A    between atoms: C16_18  and  O17_19 
REMARK    5  A    between atoms: C19_22  and  O20_23 
ROOT
HETATM    1  O1          0      30.264  86.789  -8.146  1.00  0.00    -0.286 OA
HETATM    2  C2          0      31.097  85.992  -8.659  1.00  0.00     0.201 C 
HETATM    3  C3          0      31.021  84.620  -8.494  1.00  0.00     0.067 C 
HETATM    4  C4          0      32.009  83.772  -8.984  1.00  0.00     0.103 C 
HETATM    5  O13         0      33.029  84.298  -9.638  1.00  0.00    -0.307 OA
HETATM    6  C14         0      33.168  85.596  -9.790  1.00  0.00     0.107 C 
HETATM    7  C15         0      34.392  86.169 -10.106  1.00  0.00     0.049 C 
HETATM    8  C16         0      34.592  87.541 -10.015  1.00  0.00     0.093 C 
HETATM    9  C18         0      33.440  88.310 -10.125  1.00  0.00     0.048 C 
HETATM   10  C19         0      32.194  87.757  -9.862  1.00  0.00     0.096 C 
HETATM   11  C21         0      32.098  86.439  -9.508  1.00  0.00     0.084 C 
ENDROOT
BRANCH  10  12
HETATM   12  O20         0      31.129  88.596  -9.548  1.00  0.00    -0.359 OA
HETATM   13  H20         0      30.654  88.430  -8.743  1.00  0.00     0.218 HD
ENDBRANCH  10  12
BRANCH   4  14
HETATM   14  C5          0      32.196  82.494  -8.294  1.00  0.00     0.025 C 
HETATM   15  C6          0      32.378  81.296  -8.969  1.00  0.00     0.004 C 
HETATM   16  C7          0      33.282  80.385  -8.432  1.00  0.00     0.026 C 
HETATM   17  C8          0      33.886  80.597  -7.197  1.00  0.00     0.112 C 
HETATM   18  C10         0      33.190  81.450  -6.351  1.00  0.00     0.112 C 
HETATM   19  C12         0      32.357  82.408  -6.917  1.00  0.00     0.028 C 
BRANCH  17  20
HETATM   20  O9          0      35.172  80.152  -6.951  1.00  0.00    -0.357 OA
HETATM   21  H9          0      35.926  80.400  -7.475  1.00  0.00     0.218 HD
ENDBRANCH  17  20
BRANCH  18  22
HETATM   22  O11         0      33.646  81.548  -5.044  1.00  0.00    -0.357 OA
HETATM   23  H11         0      34.394  82.113  -4.891  1.00  0.00     0.218 HD
ENDBRANCH  18  22
ENDBRANCH   4  14
BRANCH   8  24
HETATM   24  O17         0      35.787  88.073  -9.518  1.00  0.00    -0.359 OA
HETATM   25  H17         0      36.507  88.304 -10.093  1.00  0.00     0.218 HD
ENDBRANCH   8  24
TORSDOF 5
ENDMDL
MODEL 8
REMARK VINA RESULT:      -5.1      2.779      4.176
REMARK  5 active torsions:
REMARK  status: ('A' for Active; 'I' for Inactive)
REMARK    1  A    between atoms: C4_4  and  C5_5 
REMARK    2  A    between atoms: C8_8  and  O9_9 
REMARK    3  A    between atoms: C10_11  and  O11_12 
REMARK    4  A    between atoms: C16_18  and  O17_19 
REMARK    5  A    between atoms: C19_22  and  O20_23 
ROOT
HETATM    1  O1          0      33.898  82.435  -5.797  1.00  0.00    -0.286 OA
HETATM    2  C2          0      33.799  82.932  -6.952  1.00  0.00     0.201 C 
HETATM    3  C3          0      34.010  84.276  -7.211  1.00  0.00     0.067 C 
HETATM    4  C4          0      33.794  84.817  -8.473  1.00  0.00     0.103 C 
HETATM    5  O13         0      33.396  84.018  -9.447  1.00  0.00    -0.307 OA
HETATM    6  C14         0      33.145  82.743  -9.246  1.00  0.00     0.107 C 
HETATM    7  C15         0      32.365  82.004 -10.125  1.00  0.00     0.049 C 
HETATM    8  C16         0      31.893  80.742  -9.785  1.00  0.00     0.093 C 
HETATM    9  C18         0      32.644  80.074  -8.825  1.00  0.00     0.048 C 
HETATM   10  C19         0      33.470  80.778  -7.960  1.00  0.00     0.096 C 
HETATM   11  C21         0      33.560  82.139  -8.064  1.00  0.00     0.084 C 
ENDROOT
BRANCH  10  12
HETATM   12  O20         0      33.861  80.189  -6.762  1.00  0.00    -0.359 OA
HETATM   13  H20         0      34.770  80.272  -6.500  1.00  0.00     0.218 HD
ENDBRANCH  10  12
BRANCH   4  14
HETATM   14  C5          0      33.448  86.238  -8.542  1.00  0.00     0.025 C 
HETATM   15  C6          0      33.791  87.045  -9.618  1.00  0.00     0.004 C 
HETATM   16  C7          0      32.866  87.998 -10.030  1.00  0.00     0.026 C 
HETATM   17  C8          0      31.696  88.236  -9.316  1.00  0.00     0.112 C 
HETATM   18  C10         0      31.747  87.865  -7.979  1.00  0.00     0.112 C 
HETATM   19  C12         0      32.621  86.849  -7.608  1.00  0.00     0.028 C 
BRANCH  17  20
HETATM   20  O9          0      30.533  88.610  -9.965  1.00  0.00    -0.357 OA
HETATM   21  H9          0      29.761  88.059 -10.026  1.00  0.00     0.218 HD
ENDBRANCH  17  20
BRANCH  18  22
HETATM   22  O11         0      30.681  88.250  -7.179  1.00  0.00    -0.357 OA
HETATM   23  H11         0      30.505  87.718  -6.411  1.00  0.00     0.218 HD
ENDBRANCH  18  22
ENDBRANCH   4  14
BRANCH   8  24
HETATM   24  O17         0      30.600  80.331 -10.125  1.00  0.00    -0.359 OA
HETATM   25  H17         0      29.835  80.665  -9.671  1.00  0.00     0.218 HD
ENDBRANCH   8  24
TORSDOF 5
ENDMDL
